
This summary file was generated by HydroDyn  on 17-Jan-2023 at 11:57:25.

WAMIT Model - Body    1
------------------
  Displaced volume (m^3)                 :     1.391700E+04
  X-offset of the center of buoyancy (m) :     0.000000E+00
  Y-offset of the center of buoyancy (m) :     0.000000E+00


  Buoyancy loads from members modelled with WAMIT, summed about ( 0.0, 0.0, 0.0 )
                                BuoyFxi               BuoyFyi               BuoyFzi               BuoyMxi               BuoyMyi               BuoyMzi 
                                  (N)                   (N)                   (N)                  (N-m)                 (N-m)                 (N-m)  
  External:                 0.000000E+00          0.000000E+00          1.398911E+08          0.000000E+00         -0.000000E+00          0.000000E+00



Strip-Theory Volume Calculations(m^3)
-------------------------------------
  Structure Volume     :    0.00000E+00
  Submerged Volume     :    7.07541-313
  Marine Growth Volume :    0.00000E+00
  Ballasted Volume     :    9.38912E+03
              NOTE: Structure, Submerged and Marine Growth volumes are based on members not modelled with WAMIT
                      Ballasted volume is computed from all members which are marked as filled in the HydroDyn input file, regardless of PropPot flag



Total Buoyancy loads summed about ( 0.0, 0.0, 0.0 )
---------------------------------------------------
                                BuoyFxi               BuoyFyi               BuoyFzi               BuoyMxi               BuoyMyi               BuoyMzi 
                                  (N)                   (N)                   (N)                  (N-m)                 (N-m)                 (N-m)  
 External:                  0.000000E+00          0.000000E+00          0.000000E+00          0.000000E+00          0.000000E+00          0.000000E+00
 Internal:                  4.714940E-08          0.000000E+00         -9.437773E+07         -2.802597E-38          3.145924E+02         -3.155444E-23
 Total   :                  4.714940E-08          0.000000E+00         -9.437773E+07         -2.802597E-38          3.145924E+02         -3.155444E-23
              NOTE: External buoyancy is based on members not modelled with WAMIT
                      Internal buoyancy is computed from all members which are marked as filled in the HydroDyn input file, regardless of PropPot flag
                    Total buoyancy does not include WAMIT-modelled buoyancy contribution



Weight loads about ( 0.0, 0.0, 0.0 )
------------------------------------
                                 MGFxi                 MGFyi                 MGFzi                 MGMxi                 MGMyi                 MGMzi  
                                  (N)                   (N)                   (N)                  (N-m)                 (N-m)                 (N-m)  
 Marine Growth:             0.000000E+00          0.000000E+00          0.000000E+00          0.000000E+00          0.000000E+00          0.000000E+00



Nodes (first [  44 ] are joints, remainder are internal nodes)


   i      MbrIndx      Nxi         Nyi         Nzi           R          t          tMG        MGDens     PropPot    FilledFlag  FilledMass      Cd          Ca          Cp         AxCd        AxCa        AxCp        JAxCd       JAxCa       JAxCp  
  (-)       (-)        (m)         (m)         (m)          (m)        (m)         (m)       (kg/m^3)      (-)         (-)        (kg)          (-)         (-)         (-)         (-)         (-)         (-)         (-)         (-)         (-)   
     1      -           0.0000      0.0000    -20.0000      -           -        0.000E+00   0.000E+00      -           -           -           -           -           -           -           -           -        0.000E+00   0.000E+00   1.000E+00
     2      -           0.0000      0.0000     10.0000      -           -        0.000E+00   0.000E+00      -           -           -           -           -           -           -           -           -        0.000E+00   0.000E+00   1.000E+00
     3      -          14.4338     25.0000    -14.0000      -           -        0.000E+00   0.000E+00      -           -           -           -           -           -           -           -           -        0.000E+00   0.000E+00   1.000E+00
     4      -          14.4338     25.0000     12.0000      -           -        0.000E+00   0.000E+00      -           -           -           -           -           -           -           -           -        0.000E+00   0.000E+00   1.000E+00
     5      -         -28.8675      0.0000    -14.0000      -           -        0.000E+00   0.000E+00      -           -           -           -           -           -           -           -           -        0.000E+00   0.000E+00   1.000E+00
     6      -         -28.8675      0.0000     12.0000      -           -        0.000E+00   0.000E+00      -           -           -           -           -           -           -           -           -        0.000E+00   0.000E+00   1.000E+00
     7      -          14.4338    -25.0000    -14.0000      -           -        0.000E+00   0.000E+00      -           -           -           -           -           -           -           -           -        0.000E+00   0.000E+00   1.000E+00
     8      -          14.4338    -25.0000     12.0000      -           -        0.000E+00   0.000E+00      -           -           -           -           -           -           -           -           -        0.000E+00   0.000E+00   1.000E+00
     9      -          14.4337     25.0000    -20.0000      -           -        0.000E+00   0.000E+00      -           -           -           -           -           -           -           -           -        9.600E+00   0.000E+00   1.000E+00
    10      -         -28.8675      0.0000    -20.0000      -           -        0.000E+00   0.000E+00      -           -           -           -           -           -           -           -           -        9.600E+00   0.000E+00   1.000E+00
    11      -          14.4337    -25.0000    -20.0000      -           -        0.000E+00   0.000E+00      -           -           -           -           -           -           -           -           -        9.600E+00   0.000E+00   1.000E+00
    12      -           9.2376     22.0000     10.0000      -           -        0.000E+00   0.000E+00      -           -           -           -           -           -           -           -           -        0.000E+00   0.000E+00   1.000E+00
    13      -         -23.6713      3.0000     10.0000      -           -        0.000E+00   0.000E+00      -           -           -           -           -           -           -           -           -        0.000E+00   0.000E+00   1.000E+00
    14      -         -23.6713     -3.0000     10.0000      -           -        0.000E+00   0.000E+00      -           -           -           -           -           -           -           -           -        0.000E+00   0.000E+00   1.000E+00
    15      -           9.2376    -22.0000     10.0000      -           -        0.000E+00   0.000E+00      -           -           -           -           -           -           -           -           -        0.000E+00   0.000E+00   1.000E+00
    16      -          14.4337    -19.0000     10.0000      -           -        0.000E+00   0.000E+00      -           -           -           -           -           -           -           -           -        0.000E+00   0.000E+00   1.000E+00
    17      -          14.4337     19.0000     10.0000      -           -        0.000E+00   0.000E+00      -           -           -           -           -           -           -           -           -        0.000E+00   0.000E+00   1.000E+00
    18      -           4.0415     19.0000    -17.0000      -           -        0.000E+00   0.000E+00      -           -           -           -           -           -           -           -           -        0.000E+00   0.000E+00   1.000E+00
    19      -         -18.4752      6.0000    -17.0000      -           -        0.000E+00   0.000E+00      -           -           -           -           -           -           -           -           -        0.000E+00   0.000E+00   1.000E+00
    20      -         -18.4752     -6.0000    -17.0000      -           -        0.000E+00   0.000E+00      -           -           -           -           -           -           -           -           -        0.000E+00   0.000E+00   1.000E+00
    21      -           4.0415    -19.0000    -17.0000      -           -        0.000E+00   0.000E+00      -           -           -           -           -           -           -           -           -        0.000E+00   0.000E+00   1.000E+00
    22      -          14.4337    -13.0000    -17.0000      -           -        0.000E+00   0.000E+00      -           -           -           -           -           -           -           -           -        0.000E+00   0.000E+00   1.000E+00
    23      -          14.4337     13.0000    -17.0000      -           -        0.000E+00   0.000E+00      -           -           -           -           -           -           -           -           -        0.000E+00   0.000E+00   1.000E+00
    24      -           1.6250      2.8150     10.0000      -           -        0.000E+00   0.000E+00      -           -           -           -           -           -           -           -           -        0.000E+00   0.000E+00   1.000E+00
    25      -          11.4338     19.8039     10.0000      -           -        0.000E+00   0.000E+00      -           -           -           -           -           -           -           -           -        0.000E+00   0.000E+00   1.000E+00
    26      -          -3.2500      0.0000     10.0000      -           -        0.000E+00   0.000E+00      -           -           -           -           -           -           -           -           -        0.000E+00   0.000E+00   1.000E+00
    27      -         -22.8700      0.0000     10.0000      -           -        0.000E+00   0.000E+00      -           -           -           -           -           -           -           -           -        0.000E+00   0.000E+00   1.000E+00
    28      -           1.6250     -2.8150     10.0000      -           -        0.000E+00   0.000E+00      -           -           -           -           -           -           -           -           -        0.000E+00   0.000E+00   1.000E+00
    29      -          11.4338    -19.8039     10.0000      -           -        0.000E+00   0.000E+00      -           -           -           -           -           -           -           -           -        0.000E+00   0.000E+00   1.000E+00
    30      -           1.6250      2.8150    -17.0000      -           -        0.000E+00   0.000E+00      -           -           -           -           -           -           -           -           -        0.000E+00   0.000E+00   1.000E+00
    31      -           8.4338     14.6077    -17.0000      -           -        0.000E+00   0.000E+00      -           -           -           -           -           -           -           -           -        0.000E+00   0.000E+00   1.000E+00
    32      -          -3.2500      0.0000    -17.0000      -           -        0.000E+00   0.000E+00      -           -           -           -           -           -           -           -           -        0.000E+00   0.000E+00   1.000E+00
    33      -         -16.8700      0.0000    -17.0000      -           -        0.000E+00   0.000E+00      -           -           -           -           -           -           -           -           -        0.000E+00   0.000E+00   1.000E+00
    34      -           1.6250     -2.8150    -17.0000      -           -        0.000E+00   0.000E+00      -           -           -           -           -           -           -           -           -        0.000E+00   0.000E+00   1.000E+00
    35      -           8.4338    -14.6077    -17.0000      -           -        0.000E+00   0.000E+00      -           -           -           -           -           -           -           -           -        0.000E+00   0.000E+00   1.000E+00
    36      -           1.6250      2.8150    -16.2000      -           -        0.000E+00   0.000E+00      -           -           -           -           -           -           -           -           -        0.000E+00   0.000E+00   1.000E+00
    37      -          11.4338     19.8039      9.1300      -           -        0.000E+00   0.000E+00      -           -           -           -           -           -           -           -           -        0.000E+00   0.000E+00   1.000E+00
    38      -          -3.2500      0.0000    -16.2000      -           -        0.000E+00   0.000E+00      -           -           -           -           -           -           -           -           -        0.000E+00   0.000E+00   1.000E+00
    39      -         -22.8700      0.0000      9.1300      -           -        0.000E+00   0.000E+00      -           -           -           -           -           -           -           -           -        0.000E+00   0.000E+00   1.000E+00
    40      -           1.6250     -2.8150    -16.2000      -           -        0.000E+00   0.000E+00      -           -           -           -           -           -           -           -           -        0.000E+00   0.000E+00   1.000E+00
    41      -          11.4338    -19.8039      9.1300      -           -        0.000E+00   0.000E+00      -           -           -           -           -           -           -           -           -        0.000E+00   0.000E+00   1.000E+00
    42      -          14.4338     25.0000    -19.9400      -           -        0.000E+00   0.000E+00      -           -           -           -           -           -           -           -           -        0.000E+00   0.000E+00   1.000E+00
    43      -         -28.8675      0.0000    -19.9400      -           -        0.000E+00   0.000E+00      -           -           -           -           -           -           -           -           -        0.000E+00   0.000E+00   1.000E+00
    44      -          14.4338    -25.0000    -19.9400      -           -        0.000E+00   0.000E+00      -           -           -           -           -           -           -           -           -        0.000E+00   0.000E+00   1.000E+00
    45           1      0.0000      0.0000    -19.0000   3.250E+00   3.000E-02   0.000E+00   0.000E+00           T           F   0.000E+00   5.600E-01   0.000E+00   0.000E+00   0.000E+00   0.000E+00   0.000E+00         -           -           -  
    46           1      0.0000      0.0000    -18.0000   3.250E+00   3.000E-02   0.000E+00   0.000E+00           T           F   0.000E+00   5.600E-01   0.000E+00   0.000E+00   0.000E+00   0.000E+00   0.000E+00         -           -           -  
    47           1      0.0000      0.0000    -17.0000   3.250E+00   3.000E-02   0.000E+00   0.000E+00           T           F   0.000E+00   5.600E-01   0.000E+00   0.000E+00   0.000E+00   0.000E+00   0.000E+00         -           -           -  
    48           1      0.0000      0.0000    -16.0000   3.250E+00   3.000E-02   0.000E+00   0.000E+00           T           F   0.000E+00   5.600E-01   0.000E+00   0.000E+00   0.000E+00   0.000E+00   0.000E+00         -           -           -  
    49           1      0.0000      0.0000    -15.0000   3.250E+00   3.000E-02   0.000E+00   0.000E+00           T           F   0.000E+00   5.600E-01   0.000E+00   0.000E+00   0.000E+00   0.000E+00   0.000E+00         -           -           -  
    50           1      0.0000      0.0000    -14.0000   3.250E+00   3.000E-02   0.000E+00   0.000E+00           T           F   0.000E+00   5.600E-01   0.000E+00   0.000E+00   0.000E+00   0.000E+00   0.000E+00         -           -           -  
    51           1      0.0000      0.0000    -13.0000   3.250E+00   3.000E-02   0.000E+00   0.000E+00           T           F   0.000E+00   5.600E-01   0.000E+00   0.000E+00   0.000E+00   0.000E+00   0.000E+00         -           -           -  
    52           1      0.0000      0.0000    -12.0000   3.250E+00   3.000E-02   0.000E+00   0.000E+00           T           F   0.000E+00   5.600E-01   0.000E+00   0.000E+00   0.000E+00   0.000E+00   0.000E+00         -           -           -  
    53           1      0.0000      0.0000    -11.0000   3.250E+00   3.000E-02   0.000E+00   0.000E+00           T           F   0.000E+00   5.600E-01   0.000E+00   0.000E+00   0.000E+00   0.000E+00   0.000E+00         -           -           -  
    54           1      0.0000      0.0000    -10.0000   3.250E+00   3.000E-02   0.000E+00   0.000E+00           T           F   0.000E+00   5.600E-01   0.000E+00   0.000E+00   0.000E+00   0.000E+00   0.000E+00         -           -           -  
    55           1      0.0000      0.0000     -9.0000   3.250E+00   3.000E-02   0.000E+00   0.000E+00           T           F   0.000E+00   5.600E-01   0.000E+00   0.000E+00   0.000E+00   0.000E+00   0.000E+00         -           -           -  
    56           1      0.0000      0.0000     -8.0000   3.250E+00   3.000E-02   0.000E+00   0.000E+00           T           F   0.000E+00   5.600E-01   0.000E+00   0.000E+00   0.000E+00   0.000E+00   0.000E+00         -           -           -  
    57           1      0.0000      0.0000     -7.0000   3.250E+00   3.000E-02   0.000E+00   0.000E+00           T           F   0.000E+00   5.600E-01   0.000E+00   0.000E+00   0.000E+00   0.000E+00   0.000E+00         -           -           -  
    58           1      0.0000      0.0000     -6.0000   3.250E+00   3.000E-02   0.000E+00   0.000E+00           T           F   0.000E+00   5.600E-01   0.000E+00   0.000E+00   0.000E+00   0.000E+00   0.000E+00         -           -           -  
    59           1      0.0000      0.0000     -5.0000   3.250E+00   3.000E-02   0.000E+00   0.000E+00           T           F   0.000E+00   5.600E-01   0.000E+00   0.000E+00   0.000E+00   0.000E+00   0.000E+00         -           -           -  
    60           1      0.0000      0.0000     -4.0000   3.250E+00   3.000E-02   0.000E+00   0.000E+00           T           F   0.000E+00   5.600E-01   0.000E+00   0.000E+00   0.000E+00   0.000E+00   0.000E+00         -           -           -  
    61           1      0.0000      0.0000     -3.0000   3.250E+00   3.000E-02   0.000E+00   0.000E+00           T           F   0.000E+00   5.600E-01   0.000E+00   0.000E+00   0.000E+00   0.000E+00   0.000E+00         -           -           -  
    62           1      0.0000      0.0000     -2.0000   3.250E+00   3.000E-02   0.000E+00   0.000E+00           T           F   0.000E+00   5.600E-01   0.000E+00   0.000E+00   0.000E+00   0.000E+00   0.000E+00         -           -           -  
    63           1      0.0000      0.0000     -1.0000   3.250E+00   3.000E-02   0.000E+00   0.000E+00           T           F   0.000E+00   5.600E-01   0.000E+00   0.000E+00   0.000E+00   0.000E+00   0.000E+00         -           -           -  
    64           1      0.0000      0.0000     -0.0000   3.250E+00   3.000E-02   0.000E+00   0.000E+00           T           F   0.000E+00   5.600E-01   0.000E+00   0.000E+00   0.000E+00   0.000E+00   0.000E+00         -           -           -  
    65           1      0.0000      0.0000      1.0000   3.250E+00   3.000E-02   0.000E+00   0.000E+00           T           F   0.000E+00   5.600E-01   0.000E+00   0.000E+00   0.000E+00   0.000E+00   0.000E+00         -           -           -  
    66           1      0.0000      0.0000      2.0000   3.250E+00   3.000E-02   0.000E+00   0.000E+00           T           F   0.000E+00   5.600E-01   0.000E+00   0.000E+00   0.000E+00   0.000E+00   0.000E+00         -           -           -  
    67           1      0.0000      0.0000      3.0000   3.250E+00   3.000E-02   0.000E+00   0.000E+00           T           F   0.000E+00   5.600E-01   0.000E+00   0.000E+00   0.000E+00   0.000E+00   0.000E+00         -           -           -  
    68           1      0.0000      0.0000      4.0000   3.250E+00   3.000E-02   0.000E+00   0.000E+00           T           F   0.000E+00   5.600E-01   0.000E+00   0.000E+00   0.000E+00   0.000E+00   0.000E+00         -           -           -  
    69           1      0.0000      0.0000      5.0000   3.250E+00   3.000E-02   0.000E+00   0.000E+00           T           F   0.000E+00   5.600E-01   0.000E+00   0.000E+00   0.000E+00   0.000E+00   0.000E+00         -           -           -  
    70           1      0.0000      0.0000      6.0000   3.250E+00   3.000E-02   0.000E+00   0.000E+00           T           F   0.000E+00   5.600E-01   0.000E+00   0.000E+00   0.000E+00   0.000E+00   0.000E+00         -           -           -  
    71           1      0.0000      0.0000      7.0000   3.250E+00   3.000E-02   0.000E+00   0.000E+00           T           F   0.000E+00   5.600E-01   0.000E+00   0.000E+00   0.000E+00   0.000E+00   0.000E+00         -           -           -  
    72           1      0.0000      0.0000      8.0000   3.250E+00   3.000E-02   0.000E+00   0.000E+00           T           F   0.000E+00   5.600E-01   0.000E+00   0.000E+00   0.000E+00   0.000E+00   0.000E+00         -           -           -  
    73           1      0.0000      0.0000      9.0000   3.250E+00   3.000E-02   0.000E+00   0.000E+00           T           F   0.000E+00   5.600E-01   0.000E+00   0.000E+00   0.000E+00   0.000E+00   0.000E+00         -           -           -  
    74           2     14.4338     25.0000    -13.0000   6.000E+00   6.000E-02   0.000E+00   0.000E+00           T           T   1.136E+05   6.100E-01   0.000E+00   0.000E+00   0.000E+00   0.000E+00   0.000E+00         -           -           -  
    75           2     14.4338     25.0000    -12.0000   6.000E+00   6.000E-02   0.000E+00   0.000E+00           T           T   1.136E+05   6.100E-01   0.000E+00   0.000E+00   0.000E+00   0.000E+00   0.000E+00         -           -           -  
    76           2     14.4338     25.0000    -11.0000   6.000E+00   6.000E-02   0.000E+00   0.000E+00           T           T   1.136E+05   6.100E-01   0.000E+00   0.000E+00   0.000E+00   0.000E+00   0.000E+00         -           -           -  
    77           2     14.4338     25.0000    -10.0000   6.000E+00   6.000E-02   0.000E+00   0.000E+00           T           T   1.136E+05   6.100E-01   0.000E+00   0.000E+00   0.000E+00   0.000E+00   0.000E+00         -           -           -  
    78           2     14.4338     25.0000     -9.0000   6.000E+00   6.000E-02   0.000E+00   0.000E+00           T           T   1.136E+05   6.100E-01   0.000E+00   0.000E+00   0.000E+00   0.000E+00   0.000E+00         -           -           -  
    79           2     14.4338     25.0000     -8.0000   6.000E+00   6.000E-02   0.000E+00   0.000E+00           T           T   1.136E+05   6.100E-01   0.000E+00   0.000E+00   0.000E+00   0.000E+00   0.000E+00         -           -           -  
    80           2     14.4338     25.0000     -7.0000   6.000E+00   6.000E-02   0.000E+00   0.000E+00           T           T   9.430E+04   6.100E-01   0.000E+00   0.000E+00   0.000E+00   0.000E+00   0.000E+00         -           -           -  
    81           2     14.4338     25.0000     -6.0000   6.000E+00   6.000E-02   0.000E+00   0.000E+00           T           F   0.000E+00   6.100E-01   0.000E+00   0.000E+00   0.000E+00   0.000E+00   0.000E+00         -           -           -  
    82           2     14.4338     25.0000     -5.0000   6.000E+00   6.000E-02   0.000E+00   0.000E+00           T           F   0.000E+00   6.100E-01   0.000E+00   0.000E+00   0.000E+00   0.000E+00   0.000E+00         -           -           -  
    83           2     14.4338     25.0000     -4.0000   6.000E+00   6.000E-02   0.000E+00   0.000E+00           T           F   0.000E+00   6.100E-01   0.000E+00   0.000E+00   0.000E+00   0.000E+00   0.000E+00         -           -           -  
    84           2     14.4338     25.0000     -3.0000   6.000E+00   6.000E-02   0.000E+00   0.000E+00           T           F   0.000E+00   6.100E-01   0.000E+00   0.000E+00   0.000E+00   0.000E+00   0.000E+00         -           -           -  
    85           2     14.4338     25.0000     -2.0000   6.000E+00   6.000E-02   0.000E+00   0.000E+00           T           F   0.000E+00   6.100E-01   0.000E+00   0.000E+00   0.000E+00   0.000E+00   0.000E+00         -           -           -  
    86           2     14.4338     25.0000     -1.0000   6.000E+00   6.000E-02   0.000E+00   0.000E+00           T           F   0.000E+00   6.100E-01   0.000E+00   0.000E+00   0.000E+00   0.000E+00   0.000E+00         -           -           -  
    87           2     14.4338     25.0000     -0.0000   6.000E+00   6.000E-02   0.000E+00   0.000E+00           T           F   0.000E+00   6.100E-01   0.000E+00   0.000E+00   0.000E+00   0.000E+00   0.000E+00         -           -           -  
    88           2     14.4338     25.0000      1.0000   6.000E+00   6.000E-02   0.000E+00   0.000E+00           T           F   0.000E+00   6.100E-01   0.000E+00   0.000E+00   0.000E+00   0.000E+00   0.000E+00         -           -           -  
    89           2     14.4338     25.0000      2.0000   6.000E+00   6.000E-02   0.000E+00   0.000E+00           T           F   0.000E+00   6.100E-01   0.000E+00   0.000E+00   0.000E+00   0.000E+00   0.000E+00         -           -           -  
    90           2     14.4338     25.0000      3.0000   6.000E+00   6.000E-02   0.000E+00   0.000E+00           T           F   0.000E+00   6.100E-01   0.000E+00   0.000E+00   0.000E+00   0.000E+00   0.000E+00         -           -           -  
    91           2     14.4338     25.0000      4.0000   6.000E+00   6.000E-02   0.000E+00   0.000E+00           T           F   0.000E+00   6.100E-01   0.000E+00   0.000E+00   0.000E+00   0.000E+00   0.000E+00         -           -           -  
    92           2     14.4338     25.0000      5.0000   6.000E+00   6.000E-02   0.000E+00   0.000E+00           T           F   0.000E+00   6.100E-01   0.000E+00   0.000E+00   0.000E+00   0.000E+00   0.000E+00         -           -           -  
    93           2     14.4338     25.0000      6.0000   6.000E+00   6.000E-02   0.000E+00   0.000E+00           T           F   0.000E+00   6.100E-01   0.000E+00   0.000E+00   0.000E+00   0.000E+00   0.000E+00         -           -           -  
    94           2     14.4338     25.0000      7.0000   6.000E+00   6.000E-02   0.000E+00   0.000E+00           T           F   0.000E+00   6.100E-01   0.000E+00   0.000E+00   0.000E+00   0.000E+00   0.000E+00         -           -           -  
    95           2     14.4338     25.0000      8.0000   6.000E+00   6.000E-02   0.000E+00   0.000E+00           T           F   0.000E+00   6.100E-01   0.000E+00   0.000E+00   0.000E+00   0.000E+00   0.000E+00         -           -           -  
    96           2     14.4338     25.0000      9.0000   6.000E+00   6.000E-02   0.000E+00   0.000E+00           T           F   0.000E+00   6.100E-01   0.000E+00   0.000E+00   0.000E+00   0.000E+00   0.000E+00         -           -           -  
    97           2     14.4338     25.0000     10.0000   6.000E+00   6.000E-02   0.000E+00   0.000E+00           T           F   0.000E+00   6.100E-01   0.000E+00   0.000E+00   0.000E+00   0.000E+00   0.000E+00         -           -           -  
    98           2     14.4338     25.0000     11.0000   6.000E+00   6.000E-02   0.000E+00   0.000E+00           T           F   0.000E+00   6.100E-01   0.000E+00   0.000E+00   0.000E+00   0.000E+00   0.000E+00         -           -           -  
    99           3    -28.8675      0.0000    -13.0000   6.000E+00   6.000E-02   0.000E+00   0.000E+00           T           T   1.136E+05   6.100E-01   0.000E+00   0.000E+00   0.000E+00   0.000E+00   0.000E+00         -           -           -  
   100           3    -28.8675      0.0000    -12.0000   6.000E+00   6.000E-02   0.000E+00   0.000E+00           T           T   1.136E+05   6.100E-01   0.000E+00   0.000E+00   0.000E+00   0.000E+00   0.000E+00         -           -           -  
   101           3    -28.8675      0.0000    -11.0000   6.000E+00   6.000E-02   0.000E+00   0.000E+00           T           T   1.136E+05   6.100E-01   0.000E+00   0.000E+00   0.000E+00   0.000E+00   0.000E+00         -           -           -  
   102           3    -28.8675      0.0000    -10.0000   6.000E+00   6.000E-02   0.000E+00   0.000E+00           T           T   1.136E+05   6.100E-01   0.000E+00   0.000E+00   0.000E+00   0.000E+00   0.000E+00         -           -           -  
   103           3    -28.8675      0.0000     -9.0000   6.000E+00   6.000E-02   0.000E+00   0.000E+00           T           T   1.136E+05   6.100E-01   0.000E+00   0.000E+00   0.000E+00   0.000E+00   0.000E+00         -           -           -  
   104           3    -28.8675      0.0000     -8.0000   6.000E+00   6.000E-02   0.000E+00   0.000E+00           T           T   1.136E+05   6.100E-01   0.000E+00   0.000E+00   0.000E+00   0.000E+00   0.000E+00         -           -           -  
   105           3    -28.8675      0.0000     -7.0000   6.000E+00   6.000E-02   0.000E+00   0.000E+00           T           T   9.430E+04   6.100E-01   0.000E+00   0.000E+00   0.000E+00   0.000E+00   0.000E+00         -           -           -  
   106           3    -28.8675      0.0000     -6.0000   6.000E+00   6.000E-02   0.000E+00   0.000E+00           T           F   0.000E+00   6.100E-01   0.000E+00   0.000E+00   0.000E+00   0.000E+00   0.000E+00         -           -           -  
   107           3    -28.8675      0.0000     -5.0000   6.000E+00   6.000E-02   0.000E+00   0.000E+00           T           F   0.000E+00   6.100E-01   0.000E+00   0.000E+00   0.000E+00   0.000E+00   0.000E+00         -           -           -  
   108           3    -28.8675      0.0000     -4.0000   6.000E+00   6.000E-02   0.000E+00   0.000E+00           T           F   0.000E+00   6.100E-01   0.000E+00   0.000E+00   0.000E+00   0.000E+00   0.000E+00         -           -           -  
   109           3    -28.8675      0.0000     -3.0000   6.000E+00   6.000E-02   0.000E+00   0.000E+00           T           F   0.000E+00   6.100E-01   0.000E+00   0.000E+00   0.000E+00   0.000E+00   0.000E+00         -           -           -  
   110           3    -28.8675      0.0000     -2.0000   6.000E+00   6.000E-02   0.000E+00   0.000E+00           T           F   0.000E+00   6.100E-01   0.000E+00   0.000E+00   0.000E+00   0.000E+00   0.000E+00         -           -           -  
   111           3    -28.8675      0.0000     -1.0000   6.000E+00   6.000E-02   0.000E+00   0.000E+00           T           F   0.000E+00   6.100E-01   0.000E+00   0.000E+00   0.000E+00   0.000E+00   0.000E+00         -           -           -  
   112           3    -28.8675      0.0000     -0.0000   6.000E+00   6.000E-02   0.000E+00   0.000E+00           T           F   0.000E+00   6.100E-01   0.000E+00   0.000E+00   0.000E+00   0.000E+00   0.000E+00         -           -           -  
   113           3    -28.8675      0.0000      1.0000   6.000E+00   6.000E-02   0.000E+00   0.000E+00           T           F   0.000E+00   6.100E-01   0.000E+00   0.000E+00   0.000E+00   0.000E+00   0.000E+00         -           -           -  
   114           3    -28.8675      0.0000      2.0000   6.000E+00   6.000E-02   0.000E+00   0.000E+00           T           F   0.000E+00   6.100E-01   0.000E+00   0.000E+00   0.000E+00   0.000E+00   0.000E+00         -           -           -  
   115           3    -28.8675      0.0000      3.0000   6.000E+00   6.000E-02   0.000E+00   0.000E+00           T           F   0.000E+00   6.100E-01   0.000E+00   0.000E+00   0.000E+00   0.000E+00   0.000E+00         -           -           -  
   116           3    -28.8675      0.0000      4.0000   6.000E+00   6.000E-02   0.000E+00   0.000E+00           T           F   0.000E+00   6.100E-01   0.000E+00   0.000E+00   0.000E+00   0.000E+00   0.000E+00         -           -           -  
   117           3    -28.8675      0.0000      5.0000   6.000E+00   6.000E-02   0.000E+00   0.000E+00           T           F   0.000E+00   6.100E-01   0.000E+00   0.000E+00   0.000E+00   0.000E+00   0.000E+00         -           -           -  
   118           3    -28.8675      0.0000      6.0000   6.000E+00   6.000E-02   0.000E+00   0.000E+00           T           F   0.000E+00   6.100E-01   0.000E+00   0.000E+00   0.000E+00   0.000E+00   0.000E+00         -           -           -  
   119           3    -28.8675      0.0000      7.0000   6.000E+00   6.000E-02   0.000E+00   0.000E+00           T           F   0.000E+00   6.100E-01   0.000E+00   0.000E+00   0.000E+00   0.000E+00   0.000E+00         -           -           -  
   120           3    -28.8675      0.0000      8.0000   6.000E+00   6.000E-02   0.000E+00   0.000E+00           T           F   0.000E+00   6.100E-01   0.000E+00   0.000E+00   0.000E+00   0.000E+00   0.000E+00         -           -           -  
   121           3    -28.8675      0.0000      9.0000   6.000E+00   6.000E-02   0.000E+00   0.000E+00           T           F   0.000E+00   6.100E-01   0.000E+00   0.000E+00   0.000E+00   0.000E+00   0.000E+00         -           -           -  
   122           3    -28.8675      0.0000     10.0000   6.000E+00   6.000E-02   0.000E+00   0.000E+00           T           F   0.000E+00   6.100E-01   0.000E+00   0.000E+00   0.000E+00   0.000E+00   0.000E+00         -           -           -  
   123           3    -28.8675      0.0000     11.0000   6.000E+00   6.000E-02   0.000E+00   0.000E+00           T           F   0.000E+00   6.100E-01   0.000E+00   0.000E+00   0.000E+00   0.000E+00   0.000E+00         -           -           -  
   124           4     14.4338    -25.0000    -13.0000   6.000E+00   6.000E-02   0.000E+00   0.000E+00           T           T   1.136E+05   6.100E-01   0.000E+00   0.000E+00   0.000E+00   0.000E+00   0.000E+00         -           -           -  
   125           4     14.4338    -25.0000    -12.0000   6.000E+00   6.000E-02   0.000E+00   0.000E+00           T           T   1.136E+05   6.100E-01   0.000E+00   0.000E+00   0.000E+00   0.000E+00   0.000E+00         -           -           -  
   126           4     14.4338    -25.0000    -11.0000   6.000E+00   6.000E-02   0.000E+00   0.000E+00           T           T   1.136E+05   6.100E-01   0.000E+00   0.000E+00   0.000E+00   0.000E+00   0.000E+00         -           -           -  
   127           4     14.4338    -25.0000    -10.0000   6.000E+00   6.000E-02   0.000E+00   0.000E+00           T           T   1.136E+05   6.100E-01   0.000E+00   0.000E+00   0.000E+00   0.000E+00   0.000E+00         -           -           -  
   128           4     14.4338    -25.0000     -9.0000   6.000E+00   6.000E-02   0.000E+00   0.000E+00           T           T   1.136E+05   6.100E-01   0.000E+00   0.000E+00   0.000E+00   0.000E+00   0.000E+00         -           -           -  
   129           4     14.4338    -25.0000     -8.0000   6.000E+00   6.000E-02   0.000E+00   0.000E+00           T           T   1.136E+05   6.100E-01   0.000E+00   0.000E+00   0.000E+00   0.000E+00   0.000E+00         -           -           -  
   130           4     14.4338    -25.0000     -7.0000   6.000E+00   6.000E-02   0.000E+00   0.000E+00           T           T   9.430E+04   6.100E-01   0.000E+00   0.000E+00   0.000E+00   0.000E+00   0.000E+00         -           -           -  
   131           4     14.4338    -25.0000     -6.0000   6.000E+00   6.000E-02   0.000E+00   0.000E+00           T           F   0.000E+00   6.100E-01   0.000E+00   0.000E+00   0.000E+00   0.000E+00   0.000E+00         -           -           -  
   132           4     14.4338    -25.0000     -5.0000   6.000E+00   6.000E-02   0.000E+00   0.000E+00           T           F   0.000E+00   6.100E-01   0.000E+00   0.000E+00   0.000E+00   0.000E+00   0.000E+00         -           -           -  
   133           4     14.4338    -25.0000     -4.0000   6.000E+00   6.000E-02   0.000E+00   0.000E+00           T           F   0.000E+00   6.100E-01   0.000E+00   0.000E+00   0.000E+00   0.000E+00   0.000E+00         -           -           -  
   134           4     14.4338    -25.0000     -3.0000   6.000E+00   6.000E-02   0.000E+00   0.000E+00           T           F   0.000E+00   6.100E-01   0.000E+00   0.000E+00   0.000E+00   0.000E+00   0.000E+00         -           -           -  
   135           4     14.4338    -25.0000     -2.0000   6.000E+00   6.000E-02   0.000E+00   0.000E+00           T           F   0.000E+00   6.100E-01   0.000E+00   0.000E+00   0.000E+00   0.000E+00   0.000E+00         -           -           -  
   136           4     14.4338    -25.0000     -1.0000   6.000E+00   6.000E-02   0.000E+00   0.000E+00           T           F   0.000E+00   6.100E-01   0.000E+00   0.000E+00   0.000E+00   0.000E+00   0.000E+00         -           -           -  
   137           4     14.4338    -25.0000     -0.0000   6.000E+00   6.000E-02   0.000E+00   0.000E+00           T           F   0.000E+00   6.100E-01   0.000E+00   0.000E+00   0.000E+00   0.000E+00   0.000E+00         -           -           -  
   138           4     14.4338    -25.0000      1.0000   6.000E+00   6.000E-02   0.000E+00   0.000E+00           T           F   0.000E+00   6.100E-01   0.000E+00   0.000E+00   0.000E+00   0.000E+00   0.000E+00         -           -           -  
   139           4     14.4338    -25.0000      2.0000   6.000E+00   6.000E-02   0.000E+00   0.000E+00           T           F   0.000E+00   6.100E-01   0.000E+00   0.000E+00   0.000E+00   0.000E+00   0.000E+00         -           -           -  
   140           4     14.4338    -25.0000      3.0000   6.000E+00   6.000E-02   0.000E+00   0.000E+00           T           F   0.000E+00   6.100E-01   0.000E+00   0.000E+00   0.000E+00   0.000E+00   0.000E+00         -           -           -  
   141           4     14.4338    -25.0000      4.0000   6.000E+00   6.000E-02   0.000E+00   0.000E+00           T           F   0.000E+00   6.100E-01   0.000E+00   0.000E+00   0.000E+00   0.000E+00   0.000E+00         -           -           -  
   142           4     14.4338    -25.0000      5.0000   6.000E+00   6.000E-02   0.000E+00   0.000E+00           T           F   0.000E+00   6.100E-01   0.000E+00   0.000E+00   0.000E+00   0.000E+00   0.000E+00         -           -           -  
   143           4     14.4338    -25.0000      6.0000   6.000E+00   6.000E-02   0.000E+00   0.000E+00           T           F   0.000E+00   6.100E-01   0.000E+00   0.000E+00   0.000E+00   0.000E+00   0.000E+00         -           -           -  
   144           4     14.4338    -25.0000      7.0000   6.000E+00   6.000E-02   0.000E+00   0.000E+00           T           F   0.000E+00   6.100E-01   0.000E+00   0.000E+00   0.000E+00   0.000E+00   0.000E+00         -           -           -  
   145           4     14.4338    -25.0000      8.0000   6.000E+00   6.000E-02   0.000E+00   0.000E+00           T           F   0.000E+00   6.100E-01   0.000E+00   0.000E+00   0.000E+00   0.000E+00   0.000E+00         -           -           -  
   146           4     14.4338    -25.0000      9.0000   6.000E+00   6.000E-02   0.000E+00   0.000E+00           T           F   0.000E+00   6.100E-01   0.000E+00   0.000E+00   0.000E+00   0.000E+00   0.000E+00         -           -           -  
   147           4     14.4338    -25.0000     10.0000   6.000E+00   6.000E-02   0.000E+00   0.000E+00           T           F   0.000E+00   6.100E-01   0.000E+00   0.000E+00   0.000E+00   0.000E+00   0.000E+00         -           -           -  
   148           4     14.4338    -25.0000     11.0000   6.000E+00   6.000E-02   0.000E+00   0.000E+00           T           F   0.000E+00   6.100E-01   0.000E+00   0.000E+00   0.000E+00   0.000E+00   0.000E+00         -           -           -  
   149           5     14.4338     25.0000    -18.9500   1.200E+01   6.000E-02   0.000E+00   0.000E+00           T           T   4.545E+05   6.800E-01   0.000E+00   0.000E+00   0.000E+00   0.000E+00   0.000E+00         -           -           -  
   150           5     14.4338     25.0000    -17.9600   1.200E+01   6.000E-02   0.000E+00   0.000E+00           T           T   4.545E+05   6.800E-01   0.000E+00   0.000E+00   0.000E+00   0.000E+00   0.000E+00         -           -           -  
   151           5     14.4338     25.0000    -16.9700   1.200E+01   6.000E-02   0.000E+00   0.000E+00           T           T   4.545E+05   6.800E-01   0.000E+00   0.000E+00   0.000E+00   0.000E+00   0.000E+00         -           -           -  
   152           5     14.4338     25.0000    -15.9800   1.200E+01   6.000E-02   0.000E+00   0.000E+00           T           T   4.545E+05   6.800E-01   0.000E+00   0.000E+00   0.000E+00   0.000E+00   0.000E+00         -           -           -  
   153           5     14.4338     25.0000    -14.9900   1.200E+01   6.000E-02   0.000E+00   0.000E+00           T           T   4.591E+04   6.800E-01   0.000E+00   0.000E+00   0.000E+00   0.000E+00   0.000E+00         -           -           -  
   154           6    -28.8675      0.0000    -18.9500   1.200E+01   6.000E-02   0.000E+00   0.000E+00           T           T   4.545E+05   6.800E-01   0.000E+00   0.000E+00   0.000E+00   0.000E+00   0.000E+00         -           -           -  
   155           6    -28.8675      0.0000    -17.9600   1.200E+01   6.000E-02   0.000E+00   0.000E+00           T           T   4.545E+05   6.800E-01   0.000E+00   0.000E+00   0.000E+00   0.000E+00   0.000E+00         -           -           -  
   156           6    -28.8675      0.0000    -16.9700   1.200E+01   6.000E-02   0.000E+00   0.000E+00           T           T   4.545E+05   6.800E-01   0.000E+00   0.000E+00   0.000E+00   0.000E+00   0.000E+00         -           -           -  
   157           6    -28.8675      0.0000    -15.9800   1.200E+01   6.000E-02   0.000E+00   0.000E+00           T           T   4.545E+05   6.800E-01   0.000E+00   0.000E+00   0.000E+00   0.000E+00   0.000E+00         -           -           -  
   158           6    -28.8675      0.0000    -14.9900   1.200E+01   6.000E-02   0.000E+00   0.000E+00           T           T   4.591E+04   6.800E-01   0.000E+00   0.000E+00   0.000E+00   0.000E+00   0.000E+00         -           -           -  
   159           7     14.4338    -25.0000    -18.9500   1.200E+01   6.000E-02   0.000E+00   0.000E+00           T           T   4.545E+05   6.800E-01   0.000E+00   0.000E+00   0.000E+00   0.000E+00   0.000E+00         -           -           -  
   160           7     14.4338    -25.0000    -17.9600   1.200E+01   6.000E-02   0.000E+00   0.000E+00           T           T   4.545E+05   6.800E-01   0.000E+00   0.000E+00   0.000E+00   0.000E+00   0.000E+00         -           -           -  
   161           7     14.4338    -25.0000    -16.9700   1.200E+01   6.000E-02   0.000E+00   0.000E+00           T           T   4.545E+05   6.800E-01   0.000E+00   0.000E+00   0.000E+00   0.000E+00   0.000E+00         -           -           -  
   162           7     14.4338    -25.0000    -15.9800   1.200E+01   6.000E-02   0.000E+00   0.000E+00           T           T   4.545E+05   6.800E-01   0.000E+00   0.000E+00   0.000E+00   0.000E+00   0.000E+00         -           -           -  
   163           7     14.4338    -25.0000    -14.9900   1.200E+01   6.000E-02   0.000E+00   0.000E+00           T           T   4.591E+04   6.800E-01   0.000E+00   0.000E+00   0.000E+00   0.000E+00   0.000E+00         -           -           -  
   164           8      8.3716     21.5000     10.0000   8.000E-01   1.750E-02   0.000E+00   0.000E+00           T           F   0.000E+00   6.300E-01   0.000E+00   0.000E+00   0.000E+00   0.000E+00   0.000E+00         -           -           -  
   165           8      7.5056     21.0000     10.0000   8.000E-01   1.750E-02   0.000E+00   0.000E+00           T           F   0.000E+00   6.300E-01   0.000E+00   0.000E+00   0.000E+00   0.000E+00   0.000E+00         -           -           -  
   166           8      6.6395     20.5000     10.0000   8.000E-01   1.750E-02   0.000E+00   0.000E+00           T           F   0.000E+00   6.300E-01   0.000E+00   0.000E+00   0.000E+00   0.000E+00   0.000E+00         -           -           -  
   167           8      5.7735     20.0000     10.0000   8.000E-01   1.750E-02   0.000E+00   0.000E+00           T           F   0.000E+00   6.300E-01   0.000E+00   0.000E+00   0.000E+00   0.000E+00   0.000E+00         -           -           -  
   168           8      4.9075     19.5000     10.0000   8.000E-01   1.750E-02   0.000E+00   0.000E+00           T           F   0.000E+00   6.300E-01   0.000E+00   0.000E+00   0.000E+00   0.000E+00   0.000E+00         -           -           -  
   169           8      4.0415     19.0000     10.0000   8.000E-01   1.750E-02   0.000E+00   0.000E+00           T           F   0.000E+00   6.300E-01   0.000E+00   0.000E+00   0.000E+00   0.000E+00   0.000E+00         -           -           -  
   170           8      3.1754     18.5000     10.0000   8.000E-01   1.750E-02   0.000E+00   0.000E+00           T           F   0.000E+00   6.300E-01   0.000E+00   0.000E+00   0.000E+00   0.000E+00   0.000E+00         -           -           -  
   171           8      2.3094     18.0000     10.0000   8.000E-01   1.750E-02   0.000E+00   0.000E+00           T           F   0.000E+00   6.300E-01   0.000E+00   0.000E+00   0.000E+00   0.000E+00   0.000E+00         -           -           -  
   172           8      1.4434     17.5000     10.0000   8.000E-01   1.750E-02   0.000E+00   0.000E+00           T           F   0.000E+00   6.300E-01   0.000E+00   0.000E+00   0.000E+00   0.000E+00   0.000E+00         -           -           -  
   173           8      0.5774     17.0000     10.0000   8.000E-01   1.750E-02   0.000E+00   0.000E+00           T           F   0.000E+00   6.300E-01   0.000E+00   0.000E+00   0.000E+00   0.000E+00   0.000E+00         -           -           -  
   174           8     -0.2887     16.5000     10.0000   8.000E-01   1.750E-02   0.000E+00   0.000E+00           T           F   0.000E+00   6.300E-01   0.000E+00   0.000E+00   0.000E+00   0.000E+00   0.000E+00         -           -           -  
   175           8     -1.1547     16.0000     10.0000   8.000E-01   1.750E-02   0.000E+00   0.000E+00           T           F   0.000E+00   6.300E-01   0.000E+00   0.000E+00   0.000E+00   0.000E+00   0.000E+00         -           -           -  
   176           8     -2.0207     15.5000     10.0000   8.000E-01   1.750E-02   0.000E+00   0.000E+00           T           F   0.000E+00   6.300E-01   0.000E+00   0.000E+00   0.000E+00   0.000E+00   0.000E+00         -           -           -  
   177           8     -2.8867     15.0000     10.0000   8.000E-01   1.750E-02   0.000E+00   0.000E+00           T           F   0.000E+00   6.300E-01   0.000E+00   0.000E+00   0.000E+00   0.000E+00   0.000E+00         -           -           -  
   178           8     -3.7528     14.5000     10.0000   8.000E-01   1.750E-02   0.000E+00   0.000E+00           T           F   0.000E+00   6.300E-01   0.000E+00   0.000E+00   0.000E+00   0.000E+00   0.000E+00         -           -           -  
   179           8     -4.6188     14.0000     10.0000   8.000E-01   1.750E-02   0.000E+00   0.000E+00           T           F   0.000E+00   6.300E-01   0.000E+00   0.000E+00   0.000E+00   0.000E+00   0.000E+00         -           -           -  
   180           8     -5.4848     13.5000     10.0000   8.000E-01   1.750E-02   0.000E+00   0.000E+00           T           F   0.000E+00   6.300E-01   0.000E+00   0.000E+00   0.000E+00   0.000E+00   0.000E+00         -           -           -  
   181           8     -6.3508     13.0000     10.0000   8.000E-01   1.750E-02   0.000E+00   0.000E+00           T           F   0.000E+00   6.300E-01   0.000E+00   0.000E+00   0.000E+00   0.000E+00   0.000E+00         -           -           -  
   182           8     -7.2168     12.5000     10.0000   8.000E-01   1.750E-02   0.000E+00   0.000E+00           T           F   0.000E+00   6.300E-01   0.000E+00   0.000E+00   0.000E+00   0.000E+00   0.000E+00         -           -           -  
   183           8     -8.0829     12.0000     10.0000   8.000E-01   1.750E-02   0.000E+00   0.000E+00           T           F   0.000E+00   6.300E-01   0.000E+00   0.000E+00   0.000E+00   0.000E+00   0.000E+00         -           -           -  
   184           8     -8.9489     11.5000     10.0000   8.000E-01   1.750E-02   0.000E+00   0.000E+00           T           F   0.000E+00   6.300E-01   0.000E+00   0.000E+00   0.000E+00   0.000E+00   0.000E+00         -           -           -  
   185           8     -9.8149     11.0000     10.0000   8.000E-01   1.750E-02   0.000E+00   0.000E+00           T           F   0.000E+00   6.300E-01   0.000E+00   0.000E+00   0.000E+00   0.000E+00   0.000E+00         -           -           -  
   186           8    -10.6809     10.5000     10.0000   8.000E-01   1.750E-02   0.000E+00   0.000E+00           T           F   0.000E+00   6.300E-01   0.000E+00   0.000E+00   0.000E+00   0.000E+00   0.000E+00         -           -           -  
   187           8    -11.5470     10.0000     10.0000   8.000E-01   1.750E-02   0.000E+00   0.000E+00           T           F   0.000E+00   6.300E-01   0.000E+00   0.000E+00   0.000E+00   0.000E+00   0.000E+00         -           -           -  
   188           8    -12.4130      9.5000     10.0000   8.000E-01   1.750E-02   0.000E+00   0.000E+00           T           F   0.000E+00   6.300E-01   0.000E+00   0.000E+00   0.000E+00   0.000E+00   0.000E+00         -           -           -  
   189           8    -13.2790      9.0000     10.0000   8.000E-01   1.750E-02   0.000E+00   0.000E+00           T           F   0.000E+00   6.300E-01   0.000E+00   0.000E+00   0.000E+00   0.000E+00   0.000E+00         -           -           -  
   190           8    -14.1450      8.5000     10.0000   8.000E-01   1.750E-02   0.000E+00   0.000E+00           T           F   0.000E+00   6.300E-01   0.000E+00   0.000E+00   0.000E+00   0.000E+00   0.000E+00         -           -           -  
   191           8    -15.0111      8.0000     10.0000   8.000E-01   1.750E-02   0.000E+00   0.000E+00           T           F   0.000E+00   6.300E-01   0.000E+00   0.000E+00   0.000E+00   0.000E+00   0.000E+00         -           -           -  
   192           8    -15.8771      7.5000     10.0000   8.000E-01   1.750E-02   0.000E+00   0.000E+00           T           F   0.000E+00   6.300E-01   0.000E+00   0.000E+00   0.000E+00   0.000E+00   0.000E+00         -           -           -  
   193           8    -16.7431      7.0000     10.0000   8.000E-01   1.750E-02   0.000E+00   0.000E+00           T           F   0.000E+00   6.300E-01   0.000E+00   0.000E+00   0.000E+00   0.000E+00   0.000E+00         -           -           -  
   194           8    -17.6091      6.5000     10.0000   8.000E-01   1.750E-02   0.000E+00   0.000E+00           T           F   0.000E+00   6.300E-01   0.000E+00   0.000E+00   0.000E+00   0.000E+00   0.000E+00         -           -           -  
   195           8    -18.4752      6.0000     10.0000   8.000E-01   1.750E-02   0.000E+00   0.000E+00           T           F   0.000E+00   6.300E-01   0.000E+00   0.000E+00   0.000E+00   0.000E+00   0.000E+00         -           -           -  
   196           8    -19.3412      5.5000     10.0000   8.000E-01   1.750E-02   0.000E+00   0.000E+00           T           F   0.000E+00   6.300E-01   0.000E+00   0.000E+00   0.000E+00   0.000E+00   0.000E+00         -           -           -  
   197           8    -20.2072      5.0000     10.0000   8.000E-01   1.750E-02   0.000E+00   0.000E+00           T           F   0.000E+00   6.300E-01   0.000E+00   0.000E+00   0.000E+00   0.000E+00   0.000E+00         -           -           -  
   198           8    -21.0732      4.5000     10.0000   8.000E-01   1.750E-02   0.000E+00   0.000E+00           T           F   0.000E+00   6.300E-01   0.000E+00   0.000E+00   0.000E+00   0.000E+00   0.000E+00         -           -           -  
   199           8    -21.9393      4.0000     10.0000   8.000E-01   1.750E-02   0.000E+00   0.000E+00           T           F   0.000E+00   6.300E-01   0.000E+00   0.000E+00   0.000E+00   0.000E+00   0.000E+00         -           -           -  
   200           8    -22.8053      3.5000     10.0000   8.000E-01   1.750E-02   0.000E+00   0.000E+00           T           F   0.000E+00   6.300E-01   0.000E+00   0.000E+00   0.000E+00   0.000E+00   0.000E+00         -           -           -  
   201           9    -22.8053     -3.5000     10.0000   8.000E-01   1.750E-02   0.000E+00   0.000E+00           T           F   0.000E+00   6.300E-01   0.000E+00   0.000E+00   0.000E+00   0.000E+00   0.000E+00         -           -           -  
   202           9    -21.9393     -4.0000     10.0000   8.000E-01   1.750E-02   0.000E+00   0.000E+00           T           F   0.000E+00   6.300E-01   0.000E+00   0.000E+00   0.000E+00   0.000E+00   0.000E+00         -           -           -  
   203           9    -21.0732     -4.5000     10.0000   8.000E-01   1.750E-02   0.000E+00   0.000E+00           T           F   0.000E+00   6.300E-01   0.000E+00   0.000E+00   0.000E+00   0.000E+00   0.000E+00         -           -           -  
   204           9    -20.2072     -5.0000     10.0000   8.000E-01   1.750E-02   0.000E+00   0.000E+00           T           F   0.000E+00   6.300E-01   0.000E+00   0.000E+00   0.000E+00   0.000E+00   0.000E+00         -           -           -  
   205           9    -19.3412     -5.5000     10.0000   8.000E-01   1.750E-02   0.000E+00   0.000E+00           T           F   0.000E+00   6.300E-01   0.000E+00   0.000E+00   0.000E+00   0.000E+00   0.000E+00         -           -           -  
   206           9    -18.4752     -6.0000     10.0000   8.000E-01   1.750E-02   0.000E+00   0.000E+00           T           F   0.000E+00   6.300E-01   0.000E+00   0.000E+00   0.000E+00   0.000E+00   0.000E+00         -           -           -  
   207           9    -17.6091     -6.5000     10.0000   8.000E-01   1.750E-02   0.000E+00   0.000E+00           T           F   0.000E+00   6.300E-01   0.000E+00   0.000E+00   0.000E+00   0.000E+00   0.000E+00         -           -           -  
   208           9    -16.7431     -7.0000     10.0000   8.000E-01   1.750E-02   0.000E+00   0.000E+00           T           F   0.000E+00   6.300E-01   0.000E+00   0.000E+00   0.000E+00   0.000E+00   0.000E+00         -           -           -  
   209           9    -15.8771     -7.5000     10.0000   8.000E-01   1.750E-02   0.000E+00   0.000E+00           T           F   0.000E+00   6.300E-01   0.000E+00   0.000E+00   0.000E+00   0.000E+00   0.000E+00         -           -           -  
   210           9    -15.0111     -8.0000     10.0000   8.000E-01   1.750E-02   0.000E+00   0.000E+00           T           F   0.000E+00   6.300E-01   0.000E+00   0.000E+00   0.000E+00   0.000E+00   0.000E+00         -           -           -  
   211           9    -14.1450     -8.5000     10.0000   8.000E-01   1.750E-02   0.000E+00   0.000E+00           T           F   0.000E+00   6.300E-01   0.000E+00   0.000E+00   0.000E+00   0.000E+00   0.000E+00         -           -           -  
   212           9    -13.2790     -9.0000     10.0000   8.000E-01   1.750E-02   0.000E+00   0.000E+00           T           F   0.000E+00   6.300E-01   0.000E+00   0.000E+00   0.000E+00   0.000E+00   0.000E+00         -           -           -  
   213           9    -12.4130     -9.5000     10.0000   8.000E-01   1.750E-02   0.000E+00   0.000E+00           T           F   0.000E+00   6.300E-01   0.000E+00   0.000E+00   0.000E+00   0.000E+00   0.000E+00         -           -           -  
   214           9    -11.5470    -10.0000     10.0000   8.000E-01   1.750E-02   0.000E+00   0.000E+00           T           F   0.000E+00   6.300E-01   0.000E+00   0.000E+00   0.000E+00   0.000E+00   0.000E+00         -           -           -  
   215           9    -10.6809    -10.5000     10.0000   8.000E-01   1.750E-02   0.000E+00   0.000E+00           T           F   0.000E+00   6.300E-01   0.000E+00   0.000E+00   0.000E+00   0.000E+00   0.000E+00         -           -           -  
   216           9     -9.8149    -11.0000     10.0000   8.000E-01   1.750E-02   0.000E+00   0.000E+00           T           F   0.000E+00   6.300E-01   0.000E+00   0.000E+00   0.000E+00   0.000E+00   0.000E+00         -           -           -  
   217           9     -8.9489    -11.5000     10.0000   8.000E-01   1.750E-02   0.000E+00   0.000E+00           T           F   0.000E+00   6.300E-01   0.000E+00   0.000E+00   0.000E+00   0.000E+00   0.000E+00         -           -           -  
   218           9     -8.0829    -12.0000     10.0000   8.000E-01   1.750E-02   0.000E+00   0.000E+00           T           F   0.000E+00   6.300E-01   0.000E+00   0.000E+00   0.000E+00   0.000E+00   0.000E+00         -           -           -  
   219           9     -7.2168    -12.5000     10.0000   8.000E-01   1.750E-02   0.000E+00   0.000E+00           T           F   0.000E+00   6.300E-01   0.000E+00   0.000E+00   0.000E+00   0.000E+00   0.000E+00         -           -           -  
   220           9     -6.3508    -13.0000     10.0000   8.000E-01   1.750E-02   0.000E+00   0.000E+00           T           F   0.000E+00   6.300E-01   0.000E+00   0.000E+00   0.000E+00   0.000E+00   0.000E+00         -           -           -  
   221           9     -5.4848    -13.5000     10.0000   8.000E-01   1.750E-02   0.000E+00   0.000E+00           T           F   0.000E+00   6.300E-01   0.000E+00   0.000E+00   0.000E+00   0.000E+00   0.000E+00         -           -           -  
   222           9     -4.6188    -14.0000     10.0000   8.000E-01   1.750E-02   0.000E+00   0.000E+00           T           F   0.000E+00   6.300E-01   0.000E+00   0.000E+00   0.000E+00   0.000E+00   0.000E+00         -           -           -  
   223           9     -3.7528    -14.5000     10.0000   8.000E-01   1.750E-02   0.000E+00   0.000E+00           T           F   0.000E+00   6.300E-01   0.000E+00   0.000E+00   0.000E+00   0.000E+00   0.000E+00         -           -           -  
   224           9     -2.8867    -15.0000     10.0000   8.000E-01   1.750E-02   0.000E+00   0.000E+00           T           F   0.000E+00   6.300E-01   0.000E+00   0.000E+00   0.000E+00   0.000E+00   0.000E+00         -           -           -  
   225           9     -2.0207    -15.5000     10.0000   8.000E-01   1.750E-02   0.000E+00   0.000E+00           T           F   0.000E+00   6.300E-01   0.000E+00   0.000E+00   0.000E+00   0.000E+00   0.000E+00         -           -           -  
   226           9     -1.1547    -16.0000     10.0000   8.000E-01   1.750E-02   0.000E+00   0.000E+00           T           F   0.000E+00   6.300E-01   0.000E+00   0.000E+00   0.000E+00   0.000E+00   0.000E+00         -           -           -  
   227           9     -0.2887    -16.5000     10.0000   8.000E-01   1.750E-02   0.000E+00   0.000E+00           T           F   0.000E+00   6.300E-01   0.000E+00   0.000E+00   0.000E+00   0.000E+00   0.000E+00         -           -           -  
   228           9      0.5774    -17.0000     10.0000   8.000E-01   1.750E-02   0.000E+00   0.000E+00           T           F   0.000E+00   6.300E-01   0.000E+00   0.000E+00   0.000E+00   0.000E+00   0.000E+00         -           -           -  
   229           9      1.4434    -17.5000     10.0000   8.000E-01   1.750E-02   0.000E+00   0.000E+00           T           F   0.000E+00   6.300E-01   0.000E+00   0.000E+00   0.000E+00   0.000E+00   0.000E+00         -           -           -  
   230           9      2.3094    -18.0000     10.0000   8.000E-01   1.750E-02   0.000E+00   0.000E+00           T           F   0.000E+00   6.300E-01   0.000E+00   0.000E+00   0.000E+00   0.000E+00   0.000E+00         -           -           -  
   231           9      3.1754    -18.5000     10.0000   8.000E-01   1.750E-02   0.000E+00   0.000E+00           T           F   0.000E+00   6.300E-01   0.000E+00   0.000E+00   0.000E+00   0.000E+00   0.000E+00         -           -           -  
   232           9      4.0415    -19.0000     10.0000   8.000E-01   1.750E-02   0.000E+00   0.000E+00           T           F   0.000E+00   6.300E-01   0.000E+00   0.000E+00   0.000E+00   0.000E+00   0.000E+00         -           -           -  
   233           9      4.9075    -19.5000     10.0000   8.000E-01   1.750E-02   0.000E+00   0.000E+00           T           F   0.000E+00   6.300E-01   0.000E+00   0.000E+00   0.000E+00   0.000E+00   0.000E+00         -           -           -  
   234           9      5.7735    -20.0000     10.0000   8.000E-01   1.750E-02   0.000E+00   0.000E+00           T           F   0.000E+00   6.300E-01   0.000E+00   0.000E+00   0.000E+00   0.000E+00   0.000E+00         -           -           -  
   235           9      6.6395    -20.5000     10.0000   8.000E-01   1.750E-02   0.000E+00   0.000E+00           T           F   0.000E+00   6.300E-01   0.000E+00   0.000E+00   0.000E+00   0.000E+00   0.000E+00         -           -           -  
   236           9      7.5056    -21.0000     10.0000   8.000E-01   1.750E-02   0.000E+00   0.000E+00           T           F   0.000E+00   6.300E-01   0.000E+00   0.000E+00   0.000E+00   0.000E+00   0.000E+00         -           -           -  
   237           9      8.3716    -21.5000     10.0000   8.000E-01   1.750E-02   0.000E+00   0.000E+00           T           F   0.000E+00   6.300E-01   0.000E+00   0.000E+00   0.000E+00   0.000E+00   0.000E+00         -           -           -  
   238          10     14.4337    -18.0000     10.0000   8.000E-01   1.750E-02   0.000E+00   0.000E+00           T           F   0.000E+00   6.300E-01   0.000E+00   0.000E+00   0.000E+00   0.000E+00   0.000E+00         -           -           -  
   239          10     14.4337    -17.0000     10.0000   8.000E-01   1.750E-02   0.000E+00   0.000E+00           T           F   0.000E+00   6.300E-01   0.000E+00   0.000E+00   0.000E+00   0.000E+00   0.000E+00         -           -           -  
   240          10     14.4337    -16.0000     10.0000   8.000E-01   1.750E-02   0.000E+00   0.000E+00           T           F   0.000E+00   6.300E-01   0.000E+00   0.000E+00   0.000E+00   0.000E+00   0.000E+00         -           -           -  
   241          10     14.4337    -15.0000     10.0000   8.000E-01   1.750E-02   0.000E+00   0.000E+00           T           F   0.000E+00   6.300E-01   0.000E+00   0.000E+00   0.000E+00   0.000E+00   0.000E+00         -           -           -  
   242          10     14.4337    -14.0000     10.0000   8.000E-01   1.750E-02   0.000E+00   0.000E+00           T           F   0.000E+00   6.300E-01   0.000E+00   0.000E+00   0.000E+00   0.000E+00   0.000E+00         -           -           -  
   243          10     14.4337    -13.0000     10.0000   8.000E-01   1.750E-02   0.000E+00   0.000E+00           T           F   0.000E+00   6.300E-01   0.000E+00   0.000E+00   0.000E+00   0.000E+00   0.000E+00         -           -           -  
   244          10     14.4337    -12.0000     10.0000   8.000E-01   1.750E-02   0.000E+00   0.000E+00           T           F   0.000E+00   6.300E-01   0.000E+00   0.000E+00   0.000E+00   0.000E+00   0.000E+00         -           -           -  
   245          10     14.4337    -11.0000     10.0000   8.000E-01   1.750E-02   0.000E+00   0.000E+00           T           F   0.000E+00   6.300E-01   0.000E+00   0.000E+00   0.000E+00   0.000E+00   0.000E+00         -           -           -  
   246          10     14.4337    -10.0000     10.0000   8.000E-01   1.750E-02   0.000E+00   0.000E+00           T           F   0.000E+00   6.300E-01   0.000E+00   0.000E+00   0.000E+00   0.000E+00   0.000E+00         -           -           -  
   247          10     14.4337     -9.0000     10.0000   8.000E-01   1.750E-02   0.000E+00   0.000E+00           T           F   0.000E+00   6.300E-01   0.000E+00   0.000E+00   0.000E+00   0.000E+00   0.000E+00         -           -           -  
   248          10     14.4337     -8.0000     10.0000   8.000E-01   1.750E-02   0.000E+00   0.000E+00           T           F   0.000E+00   6.300E-01   0.000E+00   0.000E+00   0.000E+00   0.000E+00   0.000E+00         -           -           -  
   249          10     14.4337     -7.0000     10.0000   8.000E-01   1.750E-02   0.000E+00   0.000E+00           T           F   0.000E+00   6.300E-01   0.000E+00   0.000E+00   0.000E+00   0.000E+00   0.000E+00         -           -           -  
   250          10     14.4338     -6.0000     10.0000   8.000E-01   1.750E-02   0.000E+00   0.000E+00           T           F   0.000E+00   6.300E-01   0.000E+00   0.000E+00   0.000E+00   0.000E+00   0.000E+00         -           -           -  
   251          10     14.4337     -5.0000     10.0000   8.000E-01   1.750E-02   0.000E+00   0.000E+00           T           F   0.000E+00   6.300E-01   0.000E+00   0.000E+00   0.000E+00   0.000E+00   0.000E+00         -           -           -  
   252          10     14.4337     -4.0000     10.0000   8.000E-01   1.750E-02   0.000E+00   0.000E+00           T           F   0.000E+00   6.300E-01   0.000E+00   0.000E+00   0.000E+00   0.000E+00   0.000E+00         -           -           -  
   253          10     14.4337     -3.0000     10.0000   8.000E-01   1.750E-02   0.000E+00   0.000E+00           T           F   0.000E+00   6.300E-01   0.000E+00   0.000E+00   0.000E+00   0.000E+00   0.000E+00         -           -           -  
   254          10     14.4337     -2.0000     10.0000   8.000E-01   1.750E-02   0.000E+00   0.000E+00           T           F   0.000E+00   6.300E-01   0.000E+00   0.000E+00   0.000E+00   0.000E+00   0.000E+00         -           -           -  
   255          10     14.4337     -1.0000     10.0000   8.000E-01   1.750E-02   0.000E+00   0.000E+00           T           F   0.000E+00   6.300E-01   0.000E+00   0.000E+00   0.000E+00   0.000E+00   0.000E+00         -           -           -  
   256          10     14.4337      0.0000     10.0000   8.000E-01   1.750E-02   0.000E+00   0.000E+00           T           F   0.000E+00   6.300E-01   0.000E+00   0.000E+00   0.000E+00   0.000E+00   0.000E+00         -           -           -  
   257          10     14.4337      1.0000     10.0000   8.000E-01   1.750E-02   0.000E+00   0.000E+00           T           F   0.000E+00   6.300E-01   0.000E+00   0.000E+00   0.000E+00   0.000E+00   0.000E+00         -           -           -  
   258          10     14.4337      2.0000     10.0000   8.000E-01   1.750E-02   0.000E+00   0.000E+00           T           F   0.000E+00   6.300E-01   0.000E+00   0.000E+00   0.000E+00   0.000E+00   0.000E+00         -           -           -  
   259          10     14.4337      3.0000     10.0000   8.000E-01   1.750E-02   0.000E+00   0.000E+00           T           F   0.000E+00   6.300E-01   0.000E+00   0.000E+00   0.000E+00   0.000E+00   0.000E+00         -           -           -  
   260          10     14.4337      4.0000     10.0000   8.000E-01   1.750E-02   0.000E+00   0.000E+00           T           F   0.000E+00   6.300E-01   0.000E+00   0.000E+00   0.000E+00   0.000E+00   0.000E+00         -           -           -  
   261          10     14.4337      5.0000     10.0000   8.000E-01   1.750E-02   0.000E+00   0.000E+00           T           F   0.000E+00   6.300E-01   0.000E+00   0.000E+00   0.000E+00   0.000E+00   0.000E+00         -           -           -  
   262          10     14.4337      6.0000     10.0000   8.000E-01   1.750E-02   0.000E+00   0.000E+00           T           F   0.000E+00   6.300E-01   0.000E+00   0.000E+00   0.000E+00   0.000E+00   0.000E+00         -           -           -  
   263          10     14.4337      7.0000     10.0000   8.000E-01   1.750E-02   0.000E+00   0.000E+00           T           F   0.000E+00   6.300E-01   0.000E+00   0.000E+00   0.000E+00   0.000E+00   0.000E+00         -           -           -  
   264          10     14.4337      8.0000     10.0000   8.000E-01   1.750E-02   0.000E+00   0.000E+00           T           F   0.000E+00   6.300E-01   0.000E+00   0.000E+00   0.000E+00   0.000E+00   0.000E+00         -           -           -  
   265          10     14.4337      9.0000     10.0000   8.000E-01   1.750E-02   0.000E+00   0.000E+00           T           F   0.000E+00   6.300E-01   0.000E+00   0.000E+00   0.000E+00   0.000E+00   0.000E+00         -           -           -  
   266          10     14.4337     10.0000     10.0000   8.000E-01   1.750E-02   0.000E+00   0.000E+00           T           F   0.000E+00   6.300E-01   0.000E+00   0.000E+00   0.000E+00   0.000E+00   0.000E+00         -           -           -  
   267          10     14.4337     11.0000     10.0000   8.000E-01   1.750E-02   0.000E+00   0.000E+00           T           F   0.000E+00   6.300E-01   0.000E+00   0.000E+00   0.000E+00   0.000E+00   0.000E+00         -           -           -  
   268          10     14.4337     12.0000     10.0000   8.000E-01   1.750E-02   0.000E+00   0.000E+00           T           F   0.000E+00   6.300E-01   0.000E+00   0.000E+00   0.000E+00   0.000E+00   0.000E+00         -           -           -  
   269          10     14.4337     13.0000     10.0000   8.000E-01   1.750E-02   0.000E+00   0.000E+00           T           F   0.000E+00   6.300E-01   0.000E+00   0.000E+00   0.000E+00   0.000E+00   0.000E+00         -           -           -  
   270          10     14.4337     14.0000     10.0000   8.000E-01   1.750E-02   0.000E+00   0.000E+00           T           F   0.000E+00   6.300E-01   0.000E+00   0.000E+00   0.000E+00   0.000E+00   0.000E+00         -           -           -  
   271          10     14.4337     15.0000     10.0000   8.000E-01   1.750E-02   0.000E+00   0.000E+00           T           F   0.000E+00   6.300E-01   0.000E+00   0.000E+00   0.000E+00   0.000E+00   0.000E+00         -           -           -  
   272          10     14.4337     16.0000     10.0000   8.000E-01   1.750E-02   0.000E+00   0.000E+00           T           F   0.000E+00   6.300E-01   0.000E+00   0.000E+00   0.000E+00   0.000E+00   0.000E+00         -           -           -  
   273          10     14.4337     17.0000     10.0000   8.000E-01   1.750E-02   0.000E+00   0.000E+00           T           F   0.000E+00   6.300E-01   0.000E+00   0.000E+00   0.000E+00   0.000E+00   0.000E+00         -           -           -  
   274          10     14.4337     18.0000     10.0000   8.000E-01   1.750E-02   0.000E+00   0.000E+00           T           F   0.000E+00   6.300E-01   0.000E+00   0.000E+00   0.000E+00   0.000E+00   0.000E+00         -           -           -  
   275          11      3.1754     18.5000    -17.0000   8.000E-01   1.750E-02   0.000E+00   0.000E+00           T           F   0.000E+00   6.300E-01   0.000E+00   0.000E+00   0.000E+00   0.000E+00   0.000E+00         -           -           -  
   276          11      2.3094     18.0000    -17.0000   8.000E-01   1.750E-02   0.000E+00   0.000E+00           T           F   0.000E+00   6.300E-01   0.000E+00   0.000E+00   0.000E+00   0.000E+00   0.000E+00         -           -           -  
   277          11      1.4434     17.5000    -17.0000   8.000E-01   1.750E-02   0.000E+00   0.000E+00           T           F   0.000E+00   6.300E-01   0.000E+00   0.000E+00   0.000E+00   0.000E+00   0.000E+00         -           -           -  
   278          11      0.5773     17.0000    -17.0000   8.000E-01   1.750E-02   0.000E+00   0.000E+00           T           F   0.000E+00   6.300E-01   0.000E+00   0.000E+00   0.000E+00   0.000E+00   0.000E+00         -           -           -  
   279          11     -0.2887     16.5000    -17.0000   8.000E-01   1.750E-02   0.000E+00   0.000E+00           T           F   0.000E+00   6.300E-01   0.000E+00   0.000E+00   0.000E+00   0.000E+00   0.000E+00         -           -           -  
   280          11     -1.1547     16.0000    -17.0000   8.000E-01   1.750E-02   0.000E+00   0.000E+00           T           F   0.000E+00   6.300E-01   0.000E+00   0.000E+00   0.000E+00   0.000E+00   0.000E+00         -           -           -  
   281          11     -2.0207     15.5000    -17.0000   8.000E-01   1.750E-02   0.000E+00   0.000E+00           T           F   0.000E+00   6.300E-01   0.000E+00   0.000E+00   0.000E+00   0.000E+00   0.000E+00         -           -           -  
   282          11     -2.8868     15.0000    -17.0000   8.000E-01   1.750E-02   0.000E+00   0.000E+00           T           F   0.000E+00   6.300E-01   0.000E+00   0.000E+00   0.000E+00   0.000E+00   0.000E+00         -           -           -  
   283          11     -3.7528     14.5000    -17.0000   8.000E-01   1.750E-02   0.000E+00   0.000E+00           T           F   0.000E+00   6.300E-01   0.000E+00   0.000E+00   0.000E+00   0.000E+00   0.000E+00         -           -           -  
   284          11     -4.6188     14.0000    -17.0000   8.000E-01   1.750E-02   0.000E+00   0.000E+00           T           F   0.000E+00   6.300E-01   0.000E+00   0.000E+00   0.000E+00   0.000E+00   0.000E+00         -           -           -  
   285          11     -5.4848     13.5000    -17.0000   8.000E-01   1.750E-02   0.000E+00   0.000E+00           T           F   0.000E+00   6.300E-01   0.000E+00   0.000E+00   0.000E+00   0.000E+00   0.000E+00         -           -           -  
   286          11     -6.3509     13.0000    -17.0000   8.000E-01   1.750E-02   0.000E+00   0.000E+00           T           F   0.000E+00   6.300E-01   0.000E+00   0.000E+00   0.000E+00   0.000E+00   0.000E+00         -           -           -  
   287          11     -7.2169     12.5000    -17.0000   8.000E-01   1.750E-02   0.000E+00   0.000E+00           T           F   0.000E+00   6.300E-01   0.000E+00   0.000E+00   0.000E+00   0.000E+00   0.000E+00         -           -           -  
   288          11     -8.0829     12.0000    -17.0000   8.000E-01   1.750E-02   0.000E+00   0.000E+00           T           F   0.000E+00   6.300E-01   0.000E+00   0.000E+00   0.000E+00   0.000E+00   0.000E+00         -           -           -  
   289          11     -8.9489     11.5000    -17.0000   8.000E-01   1.750E-02   0.000E+00   0.000E+00           T           F   0.000E+00   6.300E-01   0.000E+00   0.000E+00   0.000E+00   0.000E+00   0.000E+00         -           -           -  
   290          11     -9.8150     11.0000    -17.0000   8.000E-01   1.750E-02   0.000E+00   0.000E+00           T           F   0.000E+00   6.300E-01   0.000E+00   0.000E+00   0.000E+00   0.000E+00   0.000E+00         -           -           -  
   291          11    -10.6810     10.5000    -17.0000   8.000E-01   1.750E-02   0.000E+00   0.000E+00           T           F   0.000E+00   6.300E-01   0.000E+00   0.000E+00   0.000E+00   0.000E+00   0.000E+00         -           -           -  
   292          11    -11.5470     10.0000    -17.0000   8.000E-01   1.750E-02   0.000E+00   0.000E+00           T           F   0.000E+00   6.300E-01   0.000E+00   0.000E+00   0.000E+00   0.000E+00   0.000E+00         -           -           -  
   293          11    -12.4130      9.5000    -17.0000   8.000E-01   1.750E-02   0.000E+00   0.000E+00           T           F   0.000E+00   6.300E-01   0.000E+00   0.000E+00   0.000E+00   0.000E+00   0.000E+00         -           -           -  
   294          11    -13.2791      9.0000    -17.0000   8.000E-01   1.750E-02   0.000E+00   0.000E+00           T           F   0.000E+00   6.300E-01   0.000E+00   0.000E+00   0.000E+00   0.000E+00   0.000E+00         -           -           -  
   295          11    -14.1451      8.5000    -17.0000   8.000E-01   1.750E-02   0.000E+00   0.000E+00           T           F   0.000E+00   6.300E-01   0.000E+00   0.000E+00   0.000E+00   0.000E+00   0.000E+00         -           -           -  
   296          11    -15.0111      8.0000    -17.0000   8.000E-01   1.750E-02   0.000E+00   0.000E+00           T           F   0.000E+00   6.300E-01   0.000E+00   0.000E+00   0.000E+00   0.000E+00   0.000E+00         -           -           -  
   297          11    -15.8771      7.5000    -17.0000   8.000E-01   1.750E-02   0.000E+00   0.000E+00           T           F   0.000E+00   6.300E-01   0.000E+00   0.000E+00   0.000E+00   0.000E+00   0.000E+00         -           -           -  
   298          11    -16.7431      7.0000    -17.0000   8.000E-01   1.750E-02   0.000E+00   0.000E+00           T           F   0.000E+00   6.300E-01   0.000E+00   0.000E+00   0.000E+00   0.000E+00   0.000E+00         -           -           -  
   299          11    -17.6092      6.5000    -17.0000   8.000E-01   1.750E-02   0.000E+00   0.000E+00           T           F   0.000E+00   6.300E-01   0.000E+00   0.000E+00   0.000E+00   0.000E+00   0.000E+00         -           -           -  
   300          12    -17.6092     -6.5000    -17.0000   8.000E-01   1.750E-02   0.000E+00   0.000E+00           T           F   0.000E+00   6.300E-01   0.000E+00   0.000E+00   0.000E+00   0.000E+00   0.000E+00         -           -           -  
   301          12    -16.7432     -7.0000    -17.0000   8.000E-01   1.750E-02   0.000E+00   0.000E+00           T           F   0.000E+00   6.300E-01   0.000E+00   0.000E+00   0.000E+00   0.000E+00   0.000E+00         -           -           -  
   302          12    -15.8771     -7.5000    -17.0000   8.000E-01   1.750E-02   0.000E+00   0.000E+00           T           F   0.000E+00   6.300E-01   0.000E+00   0.000E+00   0.000E+00   0.000E+00   0.000E+00         -           -           -  
   303          12    -15.0111     -8.0000    -17.0000   8.000E-01   1.750E-02   0.000E+00   0.000E+00           T           F   0.000E+00   6.300E-01   0.000E+00   0.000E+00   0.000E+00   0.000E+00   0.000E+00         -           -           -  
   304          12    -14.1451     -8.5000    -17.0000   8.000E-01   1.750E-02   0.000E+00   0.000E+00           T           F   0.000E+00   6.300E-01   0.000E+00   0.000E+00   0.000E+00   0.000E+00   0.000E+00         -           -           -  
   305          12    -13.2790     -9.0000    -17.0000   8.000E-01   1.750E-02   0.000E+00   0.000E+00           T           F   0.000E+00   6.300E-01   0.000E+00   0.000E+00   0.000E+00   0.000E+00   0.000E+00         -           -           -  
   306          12    -12.4130     -9.5000    -17.0000   8.000E-01   1.750E-02   0.000E+00   0.000E+00           T           F   0.000E+00   6.300E-01   0.000E+00   0.000E+00   0.000E+00   0.000E+00   0.000E+00         -           -           -  
   307          12    -11.5470    -10.0000    -17.0000   8.000E-01   1.750E-02   0.000E+00   0.000E+00           T           F   0.000E+00   6.300E-01   0.000E+00   0.000E+00   0.000E+00   0.000E+00   0.000E+00         -           -           -  
   308          12    -10.6810    -10.5000    -17.0000   8.000E-01   1.750E-02   0.000E+00   0.000E+00           T           F   0.000E+00   6.300E-01   0.000E+00   0.000E+00   0.000E+00   0.000E+00   0.000E+00         -           -           -  
   309          12     -9.8150    -11.0000    -17.0000   8.000E-01   1.750E-02   0.000E+00   0.000E+00           T           F   0.000E+00   6.300E-01   0.000E+00   0.000E+00   0.000E+00   0.000E+00   0.000E+00         -           -           -  
[...]
        572   0.57200E+02      -7.37008E+03       0.00000E+00      -1.01951E+02       0.00000E+00       5.99680E+04       0.00000E+00       0.00000E+00      -7.38528E+03       0.00000E+00      -6.00239E+04       0.00000E+00      -8.38402E+01       2.15238E+01       0.00000E+00       1.43547E+03       0.00000E+00      -3.88160E+01       0.00000E+00       0.00000E+00      -6.00717E+04       0.00000E+00      -3.97223E+05       0.00000E+00      -2.70869E+02       6.04817E+04       0.00000E+00      -2.24787E+02       0.00000E+00      -3.96650E+05       0.00000E+00       0.00000E+00       7.67188E-02       0.00000E+00       9.60239E+02       0.00000E+00       2.11212E+06
        573   0.57300E+02      -6.00794E+03       0.00000E+00      -2.01407E+02       0.00000E+00       5.45645E+04       0.00000E+00       0.00000E+00      -6.02643E+03       0.00000E+00      -5.45916E+04       0.00000E+00      -8.72913E+01       2.07043E+01       0.00000E+00       1.48239E+03       0.00000E+00      -5.61696E+01       0.00000E+00       0.00000E+00      -5.45043E+04       0.00000E+00      -3.80257E+05       0.00000E+00      -2.62301E+02       5.47686E+04       0.00000E+00      -2.92847E+02       0.00000E+00      -3.80106E+05       0.00000E+00       0.00000E+00       1.51582E+02       0.00000E+00       1.17994E+03       0.00000E+00       1.76061E+06
        574   0.57400E+02      -4.64661E+03       0.00000E+00      -2.67309E+02       0.00000E+00       4.78076E+04       0.00000E+00       0.00000E+00      -4.66912E+03       0.00000E+00      -4.77658E+04       0.00000E+00      -7.30469E+01       1.91525E+01       0.00000E+00       1.50055E+03       0.00000E+00      -6.75492E+01       0.00000E+00       0.00000E+00      -4.75827E+04       0.00000E+00      -3.55062E+05       0.00000E+00      -2.23755E+02       4.77129E+04       0.00000E+00      -3.08355E+02       0.00000E+00      -3.55294E+05       0.00000E+00       0.00000E+00       2.77461E+02       0.00000E+00       1.22291E+03       0.00000E+00       1.36178E+06
        575   0.57500E+02      -3.28028E+03       0.00000E+00      -2.87704E+02       0.00000E+00       4.02589E+04       0.00000E+00       0.00000E+00      -3.30315E+03       0.00000E+00      -4.02213E+04       0.00000E+00      -4.29901E+01       1.69199E+01       0.00000E+00       1.50124E+03       0.00000E+00      -7.10576E+01       0.00000E+00       0.00000E+00      -3.99353E+04       0.00000E+00      -3.22033E+05       0.00000E+00      -1.57469E+02       3.99092E+04       0.00000E+00      -2.69099E+02       0.00000E+00      -3.22536E+05       0.00000E+00       0.00000E+00       3.65333E+02       0.00000E+00       1.08228E+03       0.00000E+00       1.05384E+06
        576   0.57600E+02      -1.94613E+03       0.00000E+00      -2.59799E+02       0.00000E+00       3.26037E+04       0.00000E+00       0.00000E+00      -1.97083E+03       0.00000E+00      -3.25410E+04       0.00000E+00      -2.43592E+00       1.40513E+01       0.00000E+00       1.49415E+03       0.00000E+00      -6.58534E+01       0.00000E+00       0.00000E+00      -3.22240E+04       0.00000E+00      -2.82597E+05       0.00000E+00      -7.26164E+01       3.20657E+04       0.00000E+00      -1.85106E+02       0.00000E+00      -2.83307E+05       0.00000E+00       0.00000E+00       4.11069E+02       0.00000E+00       7.90533E+02       0.00000E+00       9.19361E+05
        577   0.57700E+02      -7.27948E+02       0.00000E+00      -1.90320E+02       0.00000E+00       2.53140E+04       0.00000E+00       0.00000E+00      -7.51493E+02       0.00000E+00      -2.52963E+04       0.00000E+00       4.09222E+01       1.05953E+01       0.00000E+00       1.48615E+03       0.00000E+00      -5.23690E+01       0.00000E+00       0.00000E+00      -2.49744E+04       0.00000E+00      -2.38489E+05       0.00000E+00       1.65174E+01       2.46687E+04       0.00000E+00      -7.60242E+01       0.00000E+00      -2.39295E+05       0.00000E+00       0.00000E+00       4.19250E+02       0.00000E+00       4.11778E+02       0.00000E+00       9.71264E+05
        578   0.57800E+02       2.48267E+02       0.00000E+00      -9.38653E+01       0.00000E+00       1.88570E+04       0.00000E+00       0.00000E+00       2.23627E+02       0.00000E+00      -1.88403E+04       0.00000E+00       7.86077E+01       6.61977E+00       0.00000E+00       1.48008E+03       0.00000E+00      -3.22821E+01       0.00000E+00       0.00000E+00      -1.86091E+04       0.00000E+00      -1.92123E+05       0.00000E+00       9.36476E+01       1.81905E+04       0.00000E+00       3.35283E+01       0.00000E+00      -1.92969E+05       0.00000E+00       0.00000E+00       4.01577E+02       0.00000E+00       2.71471E+01       0.00000E+00       1.14890E+06
        579   0.57900E+02       8.53937E+02       0.00000E+00       1.03644E+01       0.00000E+00       1.33998E+04       0.00000E+00       0.00000E+00       8.30698E+02       0.00000E+00      -1.34345E+04       0.00000E+00       1.03162E+02       2.22907E+00       0.00000E+00       1.47499E+03       0.00000E+00      -8.24149E+00       0.00000E+00       0.00000E+00      -1.33290E+04       0.00000E+00      -1.45645E+05       0.00000E+00       1.44196E+02       1.27923E+04       0.00000E+00       1.19619E+02       0.00000E+00      -1.46439E+05       0.00000E+00       0.00000E+00       3.73630E+02       0.00000E+00      -2.83541E+02       0.00000E+00       1.34367E+06
        580   0.58000E+02       9.92213E+02       0.00000E+00       1.02694E+02       0.00000E+00       9.07691E+03       0.00000E+00       0.00000E+00       9.67840E+02       0.00000E+00      -9.09653E+03       0.00000E+00       1.09767E+02      -2.42397E+00       0.00000E+00       1.46632E+03       0.00000E+00       1.65868E+01       0.00000E+00       0.00000E+00      -9.20363E+03       0.00000E+00      -1.01277E+05       0.00000E+00       1.58755E+02       8.59051E+03       0.00000E+00       1.64371E+02       0.00000E+00      -1.01977E+05       0.00000E+00       0.00000E+00       3.50770E+02       0.00000E+00      -4.59518E+02       0.00000E+00       1.42754E+06
        581   0.58100E+02       6.45190E+02       0.00000E+00       1.67039E+02       0.00000E+00       5.74024E+03       0.00000E+00       0.00000E+00       6.22325E+02       0.00000E+00      -5.77651E+03       0.00000E+00       9.73257E+01      -7.13294E+00       0.00000E+00       1.44722E+03       0.00000E+00       3.90627E+01       0.00000E+00       0.00000E+00      -6.10198E+03       0.00000E+00      -6.03288E+04       0.00000E+00       1.35484E+02       5.41392E+03       0.00000E+00       1.59897E+02       0.00000E+00      -6.09059E+04       0.00000E+00       0.00000E+00       3.44176E+02       0.00000E+00      -4.72519E+02       0.00000E+00       1.29657E+06
        582   0.58200E+02      -1.08480E+02       0.00000E+00       1.94024E+02       0.00000E+00       3.26485E+03       0.00000E+00       0.00000E+00      -1.31787E+02       0.00000E+00      -3.24352E+03       0.00000E+00       6.87563E+01      -1.16453E+01       0.00000E+00       1.40963E+03       0.00000E+00       5.65823E+01       0.00000E+00       0.00000E+00      -3.82251E+03       0.00000E+00      -2.37602E+04       0.00000E+00       8.08568E+01       3.10571E+03       0.00000E+00       1.09919E+02       0.00000E+00      -2.41903E+04       0.00000E+00       0.00000E+00       3.57993E+02       0.00000E+00      -3.32691E+02       0.00000E+00       8.97516E+05
        583   0.58300E+02      -1.08655E+03       0.00000E+00       1.82514E+02       0.00000E+00       1.32413E+03       0.00000E+00       0.00000E+00      -1.10702E+03       0.00000E+00      -1.28254E+03       0.00000E+00       3.04187E+01      -1.56799E+01       0.00000E+00       1.34582E+03       0.00000E+00       6.74609E+01       0.00000E+00       0.00000E+00      -2.05142E+03       0.00000E+00       8.63595E+03       0.00000E+00       8.53695E+00       1.31056E+03       0.00000E+00       2.87734E+01       0.00000E+00       8.36085E+03       0.00000E+00       0.00000E+00       3.88264E+02       0.00000E+00      -8.59518E+01       0.00000E+00       2.51372E+05
        584   0.58400E+02      -2.03691E+03       0.00000E+00       1.39291E+02       0.00000E+00      -2.95680E+02       0.00000E+00       0.00000E+00      -2.05573E+03       0.00000E+00       4.15573E+02       0.00000E+00      -9.22116E+00      -1.89552E+01       0.00000E+00       1.24928E+03       0.00000E+00       7.11113E+01       0.00000E+00       0.00000E+00      -5.03467E+02       0.00000E+00       3.73595E+04       0.00000E+00      -6.34323E+01      -2.13120E+02       0.00000E+00      -6.19785E+01       0.00000E+00       3.72160E+04       0.00000E+00       0.00000E+00       4.23932E+02       0.00000E+00       1.96854E+02       0.00000E+00      -5.53288E+05
        585   0.58500E+02      -2.68116E+03       0.00000E+00       7.70280E+01       0.00000E+00      -1.92803E+03       0.00000E+00       0.00000E+00      -2.69422E+03       0.00000E+00       2.06647E+03       0.00000E+00      -4.14104E+01      -2.12212E+01       0.00000E+00       1.11568E+03       0.00000E+00       6.80032E+01       0.00000E+00       0.00000E+00       1.12746E+03       0.00000E+00       6.37289E+04       0.00000E+00      -1.16536E+02      -1.81712E+03       0.00000E+00      -1.38530E+02       0.00000E+00       6.37217E+04       0.00000E+00       0.00000E+00       4.49636E+02       0.00000E+00       4.36266E+02       0.00000E+00      -1.37434E+06
        586   0.58600E+02      -2.78240E+03       0.00000E+00       1.10972E+01       0.00000E+00      -3.73189E+03       0.00000E+00       0.00000E+00      -2.79077E+03       0.00000E+00       3.92032E+03       0.00000E+00      -5.90229E+01      -2.22927E+01       0.00000E+00       9.43066E+02       0.00000E+00       5.94234E+01       0.00000E+00       0.00000E+00       3.05003E+03       0.00000E+00       8.88951E+04       0.00000E+00      -1.35931E+02      -3.66576E+03       0.00000E+00      -1.80309E+02       0.00000E+00       8.89924E+04       0.00000E+00       0.00000E+00       4.49661E+02       0.00000E+00       5.62600E+02       0.00000E+00      -2.05474E+06
        587   0.58700E+02      -2.19870E+03       0.00000E+00      -4.40112E+01       0.00000E+00      -5.93997E+03       0.00000E+00       0.00000E+00      -2.19865E+03       0.00000E+00       6.09719E+03       0.00000E+00      -5.81515E+01      -2.20742E+01       0.00000E+00       7.32039E+02       0.00000E+00       4.71146E+01       0.00000E+00       0.00000E+00       5.44170E+03       0.00000E+00       1.14227E+05       0.00000E+00      -1.13927E+02      -5.98629E+03       0.00000E+00      -1.74703E+02       0.00000E+00       1.14386E+05       0.00000E+00       0.00000E+00       4.12036E+02       0.00000E+00       5.32009E+02       0.00000E+00      -2.45580E+06
        588   0.58800E+02      -9.30187E+02       0.00000E+00      -7.78349E+01       0.00000E+00      -8.58827E+03       0.00000E+00       0.00000E+00      -9.23653E+02       0.00000E+00       8.73429E+03       0.00000E+00      -3.90222E+01      -2.05757E+01       0.00000E+00       4.85357E+02       0.00000E+00       3.28755E+01       0.00000E+00       0.00000E+00       8.36043E+03       0.00000E+00       1.40329E+05       0.00000E+00      -5.19668E+01      -8.79221E+03       0.00000E+00      -1.20010E+02       0.00000E+00       1.40530E+05       0.00000E+00       0.00000E+00       3.31812E+02       0.00000E+00       3.36884E+02       0.00000E+00      -2.49587E+06
        589   0.58900E+02       8.75543E+02       0.00000E+00      -8.59474E+01       0.00000E+00      -1.17821E+04       0.00000E+00       0.00000E+00       8.90952E+02       0.00000E+00       1.18376E+04       0.00000E+00      -6.02129E+00      -1.79128E+01       0.00000E+00       2.07756E+02       0.00000E+00       1.82212E+01       0.00000E+00       0.00000E+00       1.18300E+04       0.00000E+00       1.67653E+05       0.00000E+00       3.93364E+01      -1.21585E+04       0.00000E+00      -2.59329E+01       0.00000E+00       1.67808E+05       0.00000E+00       0.00000E+00       2.12696E+02       0.00000E+00       7.97599E+00       0.00000E+00      -2.16643E+06
        590   0.59000E+02       2.93958E+03       0.00000E+00      -7.04353E+01       0.00000E+00      -1.54364E+04       0.00000E+00       0.00000E+00       2.96011E+03       0.00000E+00       1.54381E+04       0.00000E+00       3.31895E+01      -1.42937E+01       0.00000E+00      -9.45533E+01       0.00000E+00       4.16587E+00       0.00000E+00       0.00000E+00       1.57717E+04       0.00000E+00       1.95680E+05       0.00000E+00       1.42213E+02      -1.59633E+04       0.00000E+00       8.84754E+01       0.00000E+00       1.95762E+05       0.00000E+00       0.00000E+00       6.66327E+01       0.00000E+00      -3.91998E+02       0.00000E+00      -1.53912E+06
        591   0.59100E+02       4.91181E+03       0.00000E+00      -3.88113E+01       0.00000E+00      -1.95472E+04       0.00000E+00       0.00000E+00       4.93821E+03       0.00000E+00       1.94427E+04       0.00000E+00       6.92899E+01      -9.99368E+00       0.00000E+00      -4.14014E+02       0.00000E+00      -8.83148E+00       0.00000E+00       0.00000E+00       2.00945E+04       0.00000E+00       2.23780E+05       0.00000E+00       2.35368E+02      -2.01659E+04       0.00000E+00       1.98978E+02       0.00000E+00       2.23725E+05       0.00000E+00       0.00000E+00      -8.85775E+01       0.00000E+00      -7.82117E+02       0.00000E+00      -7.44544E+05
        592   0.59200E+02       6.43827E+03       0.00000E+00      -1.71427E+00       0.00000E+00      -2.39360E+04       0.00000E+00       0.00000E+00       6.46523E+03       0.00000E+00       2.37931E+04       0.00000E+00       9.33124E+01      -5.32262E+00       0.00000E+00      -7.42020E+02       0.00000E+00      -2.07744E+01       0.00000E+00       0.00000E+00       2.46332E+04       0.00000E+00       2.50696E+05       0.00000E+00       2.98512E+02      -2.45589E+04       0.00000E+00       2.81496E+02       0.00000E+00       2.50477E+05       0.00000E+00       0.00000E+00      -2.33072E+02       0.00000E+00      -1.08111E+03       0.00000E+00       5.41218E+04
        593   0.59300E+02       7.24458E+03       0.00000E+00       2.99927E+01       0.00000E+00      -2.85187E+04       0.00000E+00       0.00000E+00       7.27197E+03       0.00000E+00       2.83135E+04       0.00000E+00       9.86133E+01      -5.89847E-01       0.00000E+00      -1.06892E+03       0.00000E+00      -3.19273E+01       0.00000E+00       0.00000E+00       2.92395E+04       0.00000E+00       2.75494E+05       0.00000E+00       3.16781E+02      -2.90461E+04       0.00000E+00       3.17475E+02       0.00000E+00       2.75017E+05       0.00000E+00       0.00000E+00      -3.49228E+02       0.00000E+00      -1.22556E+03       0.00000E+00       7.04430E+05
        594   0.59400E+02       7.19333E+03       0.00000E+00       4.79835E+01       0.00000E+00      -3.30530E+04       0.00000E+00       0.00000E+00       7.21557E+03       0.00000E+00       3.28738E+04       0.00000E+00       8.23800E+01       3.92546E+00       0.00000E+00      -1.38430E+03       0.00000E+00      -4.25799E+01       0.00000E+00       0.00000E+00       3.37126E+04       0.00000E+00       2.97001E+05       0.00000E+00       2.84122E+02      -3.33833E+04       0.00000E+00       2.98062E+02       0.00000E+00       2.96305E+05       0.00000E+00       0.00000E+00      -4.25447E+02       0.00000E+00      -1.18422E+03       0.00000E+00       1.09516E+06
        595   0.59500E+02       6.32378E+03       0.00000E+00       4.84243E+01       0.00000E+00      -3.74044E+04       0.00000E+00       0.00000E+00       6.34156E+03       0.00000E+00       3.72349E+04       0.00000E+00       4.63356E+01       7.99653E+00       0.00000E+00      -1.67713E+03       0.00000E+00      -5.28407E+01       0.00000E+00       0.00000E+00       3.78922E+04       0.00000E+00       3.14834E+05       0.00000E+00       2.04842E+02      -3.74594E+04       0.00000E+00       2.26196E+02       0.00000E+00       3.13808E+05       0.00000E+00       0.00000E+00      -4.58519E+02       0.00000E+00      -9.65360E+02       0.00000E+00       1.18525E+06
        596   0.59600E+02       4.84256E+03       0.00000E+00       3.26651E+01       0.00000E+00      -4.13047E+04       0.00000E+00       0.00000E+00       4.85173E+03       0.00000E+00       4.12245E+04       0.00000E+00      -3.51687E+00       1.14584E+01       0.00000E+00      -1.93629E+03       0.00000E+00      -6.25234E+01       0.00000E+00       0.00000E+00       4.15838E+04       0.00000E+00       3.28581E+05       0.00000E+00       9.29930E+01      -4.10385E+04       0.00000E+00       1.16121E+02       0.00000E+00       3.27298E+05       0.00000E+00       0.00000E+00      -4.54008E+02       0.00000E+00      -6.15436E+02       0.00000E+00       1.00674E+06
        597   0.59700E+02       3.08709E+03       0.00000E+00       6.55673E+00       0.00000E+00      -4.46175E+04       0.00000E+00       0.00000E+00       3.09036E+03       0.00000E+00       4.45858E+04       0.00000E+00      -5.80715E+01       1.42071E+01       0.00000E+00      -2.15112E+03       0.00000E+00      -7.11448E+01       0.00000E+00       0.00000E+00       4.46469E+04       0.00000E+00       3.38595E+05       0.00000E+00      -3.03406E+01      -4.40325E+04       0.00000E+00      -9.56161E+00       0.00000E+00       3.37044E+05       0.00000E+00       0.00000E+00      -4.24566E+02       0.00000E+00      -2.09354E+02       0.00000E+00       6.56944E+05
        598   0.59800E+02       1.44896E+03       0.00000E+00      -2.13897E+01       0.00000E+00      -4.71014E+04       0.00000E+00       0.00000E+00       1.44448E+03       0.00000E+00       4.71646E+04       0.00000E+00      -1.06972E+02       1.61876E+01       0.00000E+00      -2.31219E+03       0.00000E+00      -7.80343E+01       0.00000E+00       0.00000E+00       4.69308E+04       0.00000E+00       3.45129E+05       0.00000E+00      -1.41279E+02      -4.62430E+04       0.00000E+00      -1.24693E+02       0.00000E+00       3.43422E+05       0.00000E+00       0.00000E+00      -3.86594E+02       0.00000E+00       1.65637E+02       0.00000E+00       2.66513E+05
        599   0.59900E+02       2.93943E+02       0.00000E+00      -4.24804E+01       0.00000E+00      -4.86771E+04       0.00000E+00       0.00000E+00       2.86712E+02       0.00000E+00       4.87662E+04       0.00000E+00      -1.40751E+02       1.73788E+01       0.00000E+00      -2.41202E+03       0.00000E+00      -8.25086E+01       0.00000E+00       0.00000E+00       4.83514E+04       0.00000E+00       3.48871E+05       0.00000E+00      -2.18043E+02      -4.76388E+04       0.00000E+00      -2.05139E+02       0.00000E+00       3.47004E+05       0.00000E+00       0.00000E+00      -3.56065E+02       0.00000E+00       4.28755E+02       0.00000E+00      -3.21536E+04
        600   0.60000E+02      -1.22347E+02       0.00000E+00      -5.02964E+01       0.00000E+00      -4.91921E+04       0.00000E+00       0.00000E+00      -1.32693E+02       0.00000E+00       4.93235E+04       0.00000E+00      -1.52799E+02       1.77758E+01       0.00000E+00      -2.44587E+03       0.00000E+00      -8.40623E+01       0.00000E+00       0.00000E+00       4.88269E+04       0.00000E+00       3.50003E+05       0.00000E+00      -2.45444E+02      -4.80887E+04       0.00000E+00      -2.33981E+02       0.00000E+00       3.48119E+05       0.00000E+00       0.00000E+00      -3.44492E+02       0.00000E+00       5.23265E+02       0.00000E+00      -1.43852E+05

This summary file was closed on 17-Jan-2023 at 11:57:31.

